M0001
  Spartan 01142419033D

 30 32  0  0  0  0  0  0  0  0999 V2000
    0.1967    1.7719    2.4280 C   0  0  0  0  0  0  0  0  0  0  0  0
   -0.7863    0.8983    2.9157 C   0  0  0  0  0  0  0  0  0  0  0  0
   -2.1208    1.2579    3.0124 C   0  0  0  0  0  0  0  0  0  0  0  0
   -2.4840    2.5410    2.6077 C   0  0  0  0  0  0  0  0  0  0  0  0
   -1.5100    3.4302    2.1187 C   0  0  0  0  0  0  0  0  0  0  0  0
   -0.1643    3.0473    2.0288 C   0  0  0  0  0  0  0  0  0  0  0  0
    0.9785    4.1810    1.4295 Cl  0  0  0  0  0  0  0  0  0  0  0  0
   -0.2167   -0.3273    3.2532 N   0  0  0  0  0  0  0  0  0  0  0  0
    1.1420   -0.3415    2.9879 C   0  0  0  0  0  0  0  0  0  0  0  0
    1.9111   -1.2695    3.1851 O   0  0  0  0  0  0  0  0  0  0  0  0
    1.5308    1.0729    2.4611 C   0  0  0  0  0  0  0  0  0  0  0  0
    2.3296    1.7123    3.4661 O   0  0  0  0  0  0  0  0  0  0  0  0
    2.3452    0.9764    1.1753 C   0  0  0  0  0  0  0  0  0  0  0  0
   -3.5209    2.8634    2.6672 H   0  0  0  0  0  0  0  0  0  0  0  0
   -1.8133    4.4289    1.8098 H   0  0  0  0  0  0  0  0  0  0  0  0
   -0.7288   -1.1251    3.6029 H   0  0  0  0  0  0  0  0  0  0  0  0
    3.0306    1.0792    3.7108 H   0  0  0  0  0  0  0  0  0  0  0  0
    2.6826    1.9715    0.8652 H   0  0  0  0  0  0  0  0  0  0  0  0
    3.2540    0.3911    1.3704 H   0  0  0  0  0  0  0  0  0  0  0  0
    1.6182    0.3287    0.0104 C   0  0  0  0  0  0  0  0  0  0  0  0
    0.4634   -0.0818    0.1102 O   0  0  0  0  0  0  0  0  0  0  0  0
    2.3671    0.2247   -1.2256 C   0  0  0  0  0  0  0  0  0  0  0  0
    2.0175   -0.3007   -2.4553 C   0  0  0  0  0  0  0  0  0  0  0  0
    1.0627   -0.7475   -2.6993 H   0  0  0  0  0  0  0  0  0  0  0  0
    3.6486    0.7010   -1.2826 O   0  0  0  0  0  0  0  0  0  0  0  0
    3.1394   -0.1366   -3.3024 C   0  0  0  0  0  0  0  0  0  0  0  0
    3.2332   -0.4300   -4.3388 H   0  0  0  0  0  0  0  0  0  0  0  0
    4.1052    0.4777   -2.5416 C   0  0  0  0  0  0  0  0  0  0  0  0
    5.1169    0.8058   -2.7378 H   0  0  0  0  0  0  0  0  0  0  0  0
   -3.3071    0.1699    3.6113 Cl  0  0  0  0  0  0  0  0  0  0  0  0
  1 11  1  0  0  0  0
  1  6  1  0  0  0  0
  2  1  2  0  0  0  0
  3  4  2  0  0  0  0
  3  2  1  0  0  0  0
  4  5  1  0  0  0  0
  5 15  1  0  0  0  0
  5  6  2  0  0  0  0
  6  7  1  0  0  0  0
  8 16  1  0  0  0  0
  8  2  1  0  0  0  0
  8  9  1  0  0  0  0
  9 10  2  0  0  0  0
 11  9  1  0  0  0  0
 11 12  1  0  0  0  0
 12 17  1  0  0  0  0
 13 11  1  0  0  0  0
 14  4  1  0  0  0  0
 13 18  1  0  0  0  0
 13 19  1  0  0  0  0
 13 20  1  0  0  0  0
 20 21  2  0  0  0  0
 20 22  1  0  0  0  0
 23 24  1  0  0  0  0
 22 23  2  0  0  0  0
 22 25  1  0  0  0  0
 26 27  1  0  0  0  0
 23 26  1  0  0  0  0
 28 29  1  0  0  0  0
 25 28  1  0  0  0  0
 26 28  2  0  0  0  0
  3 30  1  0  0  0  0
M  END
$$$$
