
 OpenBabel09222312263D

  4  3  0  0  0  0  0  0  0  0999 V2000
    1.0518   -0.0335   -0.1084 N   0  0  0  0  0  0  0  0  0  0  0  0
    0.5700    0.1113    1.1696 F   0  0  0  0  0  0  0  0  0  0  0  0
    0.4435    1.2548   -1.1434 Cl  0  0  0  0  0  0  0  0  0  0  0  0
    2.9058   -0.0377   -0.1034 Br  0  0  0  0  0  0  0  0  0  0  0  0
  1  2  1  0  0  0  0
  1  3  1  0  0  0  0
  1  4  1  0  0  0  0
M  END
$$$$
