
     RDKit          3D

 16 16  0  0  0  0  0  0  0  0999 V2000
    3.2384    2.3359    1.1241 C   0  0  0  0  0  0  0  0  0  0  0  0
    3.4539    0.9129    0.6556 C   0  0  0  0  0  0  0  0  0  0  0  0
    2.5598    0.6338   -0.5383 C   0  0  0  0  0  0  0  0  0  0  0  0
    2.7199   -0.7775   -1.0075 C   0  0  0  0  0  0  0  0  0  0  0  0
    4.1354   -1.2396   -1.6835 S   0  0  0  0  0  0  0  0  0  0  0  0
    1.5748   -1.6201   -1.1708 N   0  0  0  0  0  0  0  0  0  0  0  0
    0.3462   -1.3927   -0.5270 N   0  0  0  0  0  0  0  0  0  0  0  0
    0.2227   -1.0389    0.8569 C   0  0  0  0  0  0  0  0  0  0  0  0
    1.3421   -1.5464    1.9386 S   0  0  0  0  0  0  0  0  0  0  0  0
   -0.9938   -0.4721    1.3580 N   0  0  0  0  0  0  0  0  0  0  0  0
   -2.0515    0.1071    0.5827 C   0  0  0  0  0  0  0  0  0  0  0  0
   -1.9243    0.3303   -0.7972 C   0  0  0  0  0  0  0  0  0  0  0  0
   -2.9692    0.9159   -1.5178 C   0  0  0  0  0  0  0  0  0  0  0  0
   -4.1464    1.2873   -0.8630 C   0  0  0  0  0  0  0  0  0  0  0  0
   -4.2770    1.0750    0.5120 C   0  0  0  0  0  0  0  0  0  0  0  0
   -3.2310    0.4891    1.2316 C   0  0  0  0  0  0  0  0  0  0  0  0
  1  2  1  0
  2  3  1  0
  3  4  1  0
  4  5  2  0
  4  6  1  0
  6  7  1  0
  7  8  1  0
  8  9  2  0
  8 10  1  0
 10 11  1  0
 11 12  2  0
 11 16  1  0
 12 13  1  0
 13 14  2  0
 14 15  1  0
 15 16  2  0
M  END
$$$$

     RDKit          3D

 16 16  0  0  0  0  0  0  0  0999 V2000
    4.5180   -2.2333    0.0639 C   0  0  0  0  0  0  0  0  0  0  0  0
    5.3631   -0.9809   -0.0754 C   0  0  0  0  0  0  0  0  0  0  0  0
    4.7684   -0.0477   -1.1187 C   0  0  0  0  0  0  0  0  0  0  0  0
    3.5906    0.6867   -0.5722 C   0  0  0  0  0  0  0  0  0  0  0  0
    3.8217    2.1089    0.2084 S   0  0  0  0  0  0  0  0  0  0  0  0
    2.2909    0.1009   -0.6706 N   0  0  0  0  0  0  0  0  0  0  0  0
    1.1544    0.7298   -0.1442 N   0  0  0  0  0  0  0  0  0  0  0  0
   -0.1336    0.1276   -0.2485 C   0  0  0  0  0  0  0  0  0  0  0  0
   -0.2610   -0.9882   -0.8210 O   0  0  0  0  0  0  0  0  0  0  0  0
   -1.2673    0.8079    0.3044 N   0  0  0  0  0  0  0  0  0  0  0  0
   -2.6290    0.3575    0.2942 C   0  0  0  0  0  0  0  0  0  0  0  0
   -3.0047   -0.8620   -0.2908 C   0  0  0  0  0  0  0  0  0  0  0  0
   -4.3423   -1.2682   -0.2815 C   0  0  0  0  0  0  0  0  0  0  0  0
   -5.3137   -0.4582    0.3127 C   0  0  0  0  0  0  0  0  0  0  0  0
   -4.9469    0.7571    0.8970 C   0  0  0  0  0  0  0  0  0  0  0  0
   -3.6086    1.1622    0.8870 C   0  0  0  0  0  0  0  0  0  0  0  0
  1  2  1  0
  2  3  1  0
  3  4  1  0
  4  5  2  0
  4  6  1  0
  6  7  1  0
  7  8  1  0
  8  9  2  0
  8 10  1  0
 10 11  1  0
 11 12  2  0
 11 16  1  0
 12 13  1  0
 13 14  2  0
 14 15  1  0
 15 16  2  0
M  END
$$$$

     RDKit          3D

 16 16  0  0  0  0  0  0  0  0999 V2000
    6.5937    0.6640    0.2657 C   0  0  0  0  0  0  0  0  0  0  0  0
    5.2570   -0.0394    0.1634 C   0  0  0  0  0  0  0  0  0  0  0  0
    4.6854    0.1621   -1.2258 C   0  0  0  0  0  0  0  0  0  0  0  0
    3.3698   -0.5237   -1.3354 C   0  0  0  0  0  0  0  0  0  0  0  0
    3.3155   -1.7099   -1.7556 O   0  0  0  0  0  0  0  0  0  0  0  0
    2.1820    0.1564   -0.9348 N   0  0  0  0  0  0  0  0  0  0  0  0
    0.9303   -0.4697   -1.0120 N   0  0  0  0  0  0  0  0  0  0  0  0
   -0.2728    0.1908   -0.6144 C   0  0  0  0  0  0  0  0  0  0  0  0
   -0.2293    1.7722   -0.1651 S   0  0  0  0  0  0  0  0  0  0  0  0
   -1.5166   -0.5052   -0.7850 N   0  0  0  0  0  0  0  0  0  0  0  0
   -2.7915   -0.1939   -0.2051 C   0  0  0  0  0  0  0  0  0  0  0  0
   -2.9172    0.6656    0.8971 C   0  0  0  0  0  0  0  0  0  0  0  0
   -4.1723    0.9162    1.4593 C   0  0  0  0  0  0  0  0  0  0  0  0
   -5.3096    0.3006    0.9301 C   0  0  0  0  0  0  0  0  0  0  0  0
   -5.1902   -0.5683   -0.1578 C   0  0  0  0  0  0  0  0  0  0  0  0
   -3.9341   -0.8176   -0.7190 C   0  0  0  0  0  0  0  0  0  0  0  0
  1  2  1  0
  2  3  1  0
  3  4  1  0
  4  5  2  0
  4  6  1  0
  6  7  1  0
  7  8  1  0
  8  9  2  0
  8 10  1  0
 10 11  1  0
 11 12  2  0
 11 16  1  0
 12 13  1  0
 13 14  2  0
 14 15  1  0
 15 16  2  0
M  END
$$$$

     RDKit          3D

 28 30  0  0  1  0  0  0  0  0999 V2000
   -6.0085    3.4475   -0.7550 C   0  0  0  0  0  0  0  0  0  0  0  0
   -6.4381    2.0273   -0.8295 C   0  0  0  0  0  0  0  0  0  0  0  0
   -6.9858    1.5974   -1.8792 O   0  0  0  0  0  0  0  0  0  0  0  0
   -6.2216    1.1645    0.2925 N   0  0  0  0  0  0  0  0  0  0  0  0
   -6.5912   -0.2493    0.3374 C   0  0  1  0  0  0  0  0  0  0  0  0
   -8.0944   -0.4133    0.2107 C   0  0  0  0  0  0  0  0  0  0  0  0
   -5.8800   -1.0472   -0.7498 C   0  0  0  0  0  0  0  0  0  0  0  0
   -4.4165   -1.1405   -0.4770 C   0  0  0  0  0  0  0  0  0  0  0  0
   -3.9276   -2.1047    0.4121 C   0  0  0  0  0  0  0  0  0  0  0  0
   -2.5571   -2.1802    0.6784 C   0  0  0  0  0  0  0  0  0  0  0  0
   -1.6740   -1.2905    0.0584 C   0  0  0  0  0  0  0  0  0  0  0  0
   -0.2673   -1.3678    0.3322 C   0  0  0  0  0  0  0  0  0  0  0  0
    0.9146   -1.4325    0.5622 C   0  0  0  0  0  0  0  0  0  0  0  0
    2.3214   -1.5081    0.8351 C   0  0  0  0  0  0  0  0  0  0  0  0
    2.8262   -2.5481    1.6134 C   0  0  0  0  0  0  0  0  0  0  0  0
    4.1976   -2.5859    1.8568 C   0  0  0  0  0  0  0  0  0  0  0  0
    5.0062   -1.6246    1.3396 N   0  0  0  0  0  0  0  0  0  0  0  0
    4.5002   -0.6145    0.5788 C   0  0  0  0  0  0  0  0  0  0  0  0
    5.3695    0.3950    0.0464 N   0  0  0  0  0  0  0  0  0  0  0  0
    6.8170    0.2975    0.2240 C   0  0  0  0  0  0  0  0  0  0  0  0
    7.3847    1.6611    0.6067 C   0  0  0  0  0  0  0  0  0  0  0  0
    6.9471    2.7141   -0.4074 C   0  0  0  0  0  0  0  0  0  0  0  0
    5.4238    2.7851   -0.4659 C   0  0  1  0  0  0  0  0  0  0  0  0
    5.0386    3.7298   -1.3972 F   0  0  0  0  0  0  0  0  0  0  0  0
    4.8481    1.4252   -0.8498 C   0  0  0  0  0  0  0  0  0  0  0  0
    3.1612   -0.5647    0.3350 N   0  0  0  0  0  0  0  0  0  0  0  0
   -2.1618   -0.3242   -0.8271 C   0  0  0  0  0  0  0  0  0  0  0  0
   -3.5321   -0.2484   -1.0938 C   0  0  0  0  0  0  0  0  0  0  0  0
  1  2  1  0
  2  3  2  0
  2  4  1  0
  4  5  1  0
  5  6  1  6
  5  7  1  0
  7  8  1  0
  8  9  2  0
  8 28  1  0
  9 10  1  0
 10 11  2  0
 11 12  1  0
 11 27  1  0
 12 13  3  0
 13 14  1  0
 14 15  2  0
 14 26  1  0
 15 16  1  0
 16 17  2  0
 17 18  1  0
 18 19  1  0
 18 26  2  0
 19 20  1  0
 19 25  1  0
 20 21  1  0
 21 22  1  0
 22 23  1  0
 23 24  1  6
 23 25  1  0
 27 28  2  0
M  END
$$$$

     RDKit          3D

 27 29  0  0  1  0  0  0  0  0999 V2000
    5.8763    1.8583   -1.4697 C   0  0  0  0  0  0  0  0  0  0  0  0
    5.8404    0.3737   -1.4171 C   0  0  0  0  0  0  0  0  0  0  0  0
    6.8577   -0.3265   -0.7645 C   0  0  0  0  0  0  0  0  0  0  0  0
    6.8065   -1.7210   -0.7219 C   0  0  0  0  0  0  0  0  0  0  0  0
    5.7467   -2.3968   -1.3293 C   0  0  0  0  0  0  0  0  0  0  0  0
    4.7506   -1.6616   -1.9785 C   0  0  0  0  0  0  0  0  0  0  0  0
    3.5981   -2.3643   -2.6123 C   0  0  0  0  0  0  0  0  0  0  0  0
    2.4591   -2.5368   -1.6206 C   0  0  0  0  0  0  0  0  0  0  0  0
    1.8207   -1.2547   -1.3664 N   0  0  0  0  0  0  0  0  0  0  0  0
    0.7520   -1.1137   -0.4317 C   0  0  0  0  0  0  0  0  0  0  0  0
    0.3245   -2.1149    0.2065 O   0  0  0  0  0  0  0  0  0  0  0  0
    0.1523    0.2350   -0.2107 C   0  0  2  0  0  0  0  0  0  0  0  0
    0.3670    0.6855    1.2273 C   0  0  0  0  0  0  0  0  0  0  0  0
   -0.0856    2.1303    1.3879 C   0  0  0  0  0  0  0  0  0  0  0  0
   -1.4724    2.3295    0.8558 C   0  0  0  0  0  0  0  0  0  0  0  0
   -2.1578    3.2935    1.2898 O   0  0  0  0  0  0  0  0  0  0  0  0
   -1.9827    1.4876   -0.1963 N   0  0  0  0  0  0  0  0  0  0  0  0
   -3.2836    1.7683   -0.7928 C   0  0  0  0  0  0  0  0  0  0  0  0
   -4.3691    1.0746   -0.0386 C   0  0  0  0  0  0  0  0  0  0  0  0
   -5.0009    1.7173    1.0319 C   0  0  0  0  0  0  0  0  0  0  0  0
   -6.0028    1.0591    1.7514 C   0  0  0  0  0  0  0  0  0  0  0  0
   -6.3715   -0.2440    1.4038 C   0  0  0  0  0  0  0  0  0  0  0  0
   -7.6259   -1.0677    2.3042 Cl  0  0  0  0  0  0  0  0  0  0  0  0
   -5.7379   -0.8897    0.3376 C   0  0  0  0  0  0  0  0  0  0  0  0
   -4.7360   -0.2316   -0.3820 C   0  0  0  0  0  0  0  0  0  0  0  0
   -1.3414    0.2128   -0.5245 C   0  0  0  0  0  0  0  0  0  0  0  0
    4.8158   -0.3021   -2.0037 N   0  0  0  0  0  0  0  0  0  0  0  0
  1  2  1  0
  2  3  2  0
  2 27  1  0
  3  4  1  0
  4  5  2  0
  5  6  1  0
  6  7  1  0
  6 27  2  0
  7  8  1  0
  8  9  1  0
  9 10  1  0
 10 11  2  0
 12 10  1  1
 12 13  1  0
 12 26  1  0
 13 14  1  0
 14 15  1  0
 15 16  2  0
 15 17  1  0
 17 18  1  0
 17 26  1  0
 18 19  1  0
 19 20  2  0
 19 25  1  0
 20 21  1  0
 21 22  2  0
 22 23  1  0
 22 24  1  0
 24 25  2  0
M  END
$$$$

     RDKit          3D

 20 22  0  0  1  0  0  0  0  0999 V2000
   -1.3375    2.7596    1.6240 C   0  0  0  0  0  0  0  0  0  0  0  0
   -1.2002    2.3756    0.1614 C   0  0  2  0  0  0  0  0  0  0  0  0
   -2.5611    2.1077   -0.4074 C   0  0  0  0  0  0  0  0  0  0  0  0
   -3.0117    0.8653   -0.5490 C   0  0  0  0  0  0  0  0  0  0  0  0
   -2.1667   -0.2636   -0.2460 N   0  0  0  0  0  0  0  0  0  0  0  0
   -2.7157   -1.5617   -0.1524 N   0  0  0  0  0  0  0  0  0  0  0  0
   -3.7266   -1.5703    0.8955 C   0  0  0  0  0  0  0  0  0  0  0  0
   -3.3712   -1.8906   -1.4109 C   0  0  0  0  0  0  0  0  0  0  0  0
   -0.7375   -0.0613   -0.1062 C   0  0  0  0  0  0  0  0  0  0  0  0
   -0.2567    1.2008    0.0256 C   0  0  0  0  0  0  0  0  0  0  0  0
    1.2016    1.4567    0.1166 C   0  0  0  0  0  0  0  0  0  0  0  0
    1.6297    2.6385    0.2237 O   0  0  0  0  0  0  0  0  0  0  0  0
    2.1502    0.3309    0.0826 C   0  0  0  0  0  0  0  0  0  0  0  0
    3.5309    0.5419    0.1816 C   0  0  0  0  0  0  0  0  0  0  0  0
    4.3886   -0.5128    0.1486 N   0  0  0  0  0  0  0  0  0  0  0  0
    3.9408   -1.7903    0.0199 C   0  0  0  0  0  0  0  0  0  0  0  0
    2.5722   -2.0460   -0.0823 C   0  0  0  0  0  0  0  0  0  0  0  0
    1.6672   -0.9780   -0.0501 C   0  0  0  0  0  0  0  0  0  0  0  0
    0.2134   -1.2124   -0.1609 C   0  0  0  0  0  0  0  0  0  0  0  0
   -0.2097   -2.3899   -0.3143 O   0  0  0  0  0  0  0  0  0  0  0  0
  2  1  1  1
  2  3  1  0
  2 10  1  0
  3  4  2  0
  4  5  1  0
  5  6  1  0
  5  9  1  0
  6  7  1  0
  6  8  1  0
  9 10  2  0
  9 19  1  0
 10 11  1  0
 11 12  2  0
 11 13  1  0
 13 14  2  0
 13 18  1  0
 14 15  1  0
 15 16  2  0
 16 17  1  0
 17 18  2  0
 18 19  1  0
 19 20  2  0
M  END
$$$$

     RDKit          3D

 24 27  0  0  0  0  0  0  0  0999 V2000
   -5.9105   -2.1923   -0.5878 C   0  0  0  0  0  0  0  0  0  0  0  0
   -5.5663   -0.8248   -0.4233 O   0  0  0  0  0  0  0  0  0  0  0  0
   -4.2436   -0.4086   -0.2696 C   0  0  0  0  0  0  0  0  0  0  0  0
   -3.9709    0.9681   -0.1116 C   0  0  0  0  0  0  0  0  0  0  0  0
   -2.6468    1.4098    0.0461 C   0  0  0  0  0  0  0  0  0  0  0  0
   -1.6463    0.4416    0.0477 C   0  0  0  0  0  0  0  0  0  0  0  0
   -0.2745    0.5375    0.1477 C   0  0  0  0  0  0  0  0  0  0  0  0
    0.5058    1.7908    0.2190 C   0  0  0  0  0  0  0  0  0  0  0  0
    0.0385    2.8685    0.9809 C   0  0  0  0  0  0  0  0  0  0  0  0
    0.7683    4.0586    1.0130 C   0  0  0  0  0  0  0  0  0  0  0  0
    1.9209    4.1710    0.3001 N   0  0  0  0  0  0  0  0  0  0  0  0
    2.3898    3.1449   -0.4590 C   0  0  0  0  0  0  0  0  0  0  0  0
    1.6877    1.9393   -0.5167 C   0  0  0  0  0  0  0  0  0  0  0  0
    0.1855   -0.7886    0.0457 C   0  0  0  0  0  0  0  0  0  0  0  0
    1.5784   -1.2625    0.1772 C   0  0  0  0  0  0  0  0  0  0  0  0
    1.9617   -2.4632   -0.4373 C   0  0  0  0  0  0  0  0  0  0  0  0
    3.2640   -2.9499   -0.2910 C   0  0  0  0  0  0  0  0  0  0  0  0
    4.1906   -2.2443    0.4808 C   0  0  0  0  0  0  0  0  0  0  0  0
    5.4528   -2.7149    0.6220 F   0  0  0  0  0  0  0  0  0  0  0  0
    3.8125   -1.0575    1.1135 C   0  0  0  0  0  0  0  0  0  0  0  0
    2.5100   -0.5723    0.9668 C   0  0  0  0  0  0  0  0  0  0  0  0
   -0.8468   -1.6550   -0.1242 N   0  0  0  0  0  0  0  0  0  0  0  0
   -1.9432   -0.8799   -0.1182 C   0  0  0  0  0  0  0  0  0  0  0  0
   -3.2177   -1.3166   -0.2742 N   0  0  0  0  0  0  0  0  0  0  0  0
  1  2  1  0
  2  3  1  0
  3  4  2  0
  3 24  1  0
  4  5  1  0
  5  6  2  0
  6  7  1  0
  6 23  1  0
  7  8  1  0
  7 14  2  0
  8  9  2  0
  8 13  1  0
  9 10  1  0
 10 11  2  0
 11 12  1  0
 12 13  2  0
 14 15  1  0
 14 22  1  0
 15 16  2  0
 15 21  1  0
 16 17  1  0
 17 18  2  0
 18 19  1  0
 18 20  1  0
 20 21  2  0
 22 23  1  0
 23 24  2  0
M  END
$$$$

     RDKit          3D

 23 25  0  0  1  0  0  0  0  0999 V2000
   -6.7989   -1.8615   -0.0856 N   0  0  0  0  0  0  0  0  0  0  0  0
   -5.7086   -1.1217    0.4497 C   0  0  0  0  0  0  0  0  0  0  0  0
   -4.4577   -1.6161    0.5524 N   0  0  0  0  0  0  0  0  0  0  0  0
   -3.6003   -0.7430    1.0774 N   0  0  0  0  0  0  0  0  0  0  0  0
   -4.1735    0.4388    1.3972 C   0  0  0  0  0  0  0  0  0  0  0  0
   -3.4159    1.5950    1.9545 C   0  0  0  0  0  0  0  0  0  0  0  0
   -2.9463    2.5211    0.8408 C   0  0  0  0  0  0  0  0  0  0  0  0
   -1.9237    1.8742    0.0289 N   0  0  0  0  0  0  0  0  0  0  0  0
   -0.5939    1.6348    0.5011 C   0  0  0  0  0  0  0  0  0  0  0  0
   -0.2501    2.0361    1.6469 O   0  0  0  0  0  0  0  0  0  0  0  0
    0.3726    0.9201   -0.3503 C   0  0  0  0  0  0  0  0  0  0  0  0
   -0.0051    0.4642   -1.6214 C   0  0  0  0  0  0  0  0  0  0  0  0
    0.9097   -0.2164   -2.4293 C   0  0  0  0  0  0  0  0  0  0  0  0
    2.2093   -0.4466   -1.9717 C   0  0  0  0  0  0  0  0  0  0  0  0
    2.5989    0.0041   -0.7019 C   0  0  0  0  0  0  0  0  0  0  0  0
    3.9835   -0.2301   -0.1892 C   0  0  2  0  0  0  0  0  0  0  0  0
    5.0250    0.4862   -1.0510 C   0  0  0  0  0  0  0  0  0  0  0  0
    6.4427    0.2059   -0.5450 C   0  0  0  0  0  0  0  0  0  0  0  0
    6.6013   -1.2208   -0.0038 C   0  0  0  0  0  0  0  0  0  0  0  0
    5.5910   -2.1090   -0.5737 N   0  0  0  0  0  0  0  0  0  0  0  0
    4.2763   -1.7359   -0.0422 C   0  0  0  0  0  0  0  0  0  0  0  0
    1.6790    0.6848    0.1024 C   0  0  0  0  0  0  0  0  0  0  0  0
   -5.8154    0.4594    1.0138 S   0  0  0  0  0  0  0  0  0  0  0  0
  1  2  1  0
  2  3  2  0
  2 23  1  0
  3  4  1  0
  4  5  2  0
  5  6  1  0
  5 23  1  0
  6  7  1  0
  7  8  1  0
  8  9  1  0
  9 10  2  0
  9 11  1  0
 11 12  2  0
 11 22  1  0
 12 13  1  0
 13 14  2  0
 14 15  1  0
 16 15  1  6
 15 22  2  0
 16 17  1  0
 16 21  1  0
 17 18  1  0
 18 19  1  0
 19 20  1  0
 20 21  1  0
M  END
$$$$

     RDKit          3D

 29 32  0  0  1  0  0  0  0  0999 V2000
   -4.2058   -4.5369    1.1836 C   0  0  0  0  0  0  0  0  0  0  0  0
   -3.6287   -4.2064   -0.1105 N   0  0  0  0  0  0  0  0  0  0  0  0
   -3.9317   -5.0885   -1.2274 C   0  0  0  0  0  0  0  0  0  0  0  0
   -2.7886   -3.0492   -0.2797 C   0  0  0  0  0  0  0  0  0  0  0  0
   -2.5045   -2.2072    0.8074 C   0  0  0  0  0  0  0  0  0  0  0  0
   -1.6893   -1.0848    0.6427 C   0  0  0  0  0  0  0  0  0  0  0  0
   -1.1455   -0.7821   -0.6146 C   0  0  0  0  0  0  0  0  0  0  0  0
   -0.2473    0.4074   -0.8276 C   0  0  1  0  0  0  0  0  0  0  0  0
   -0.4994    1.5740    0.0819 C   0  0  0  0  0  0  0  0  0  0  0  0
   -0.1445    1.5284    1.2911 O   0  0  0  0  0  0  0  0  0  0  0  0
   -1.1612    2.7312   -0.4409 N   0  0  0  0  0  0  0  0  0  0  0  0
   -1.4803    3.9296    0.3307 C   0  0  0  0  0  0  0  0  0  0  0  0
   -2.3955    3.6087    1.5013 C   0  0  0  0  0  0  0  0  0  0  0  0
   -1.7322    4.1832    2.7395 C   0  0  0  0  0  0  0  0  0  0  0  0
   -0.6439    5.1130    2.2468 C   0  0  0  0  0  0  0  0  0  0  0  0
   -0.2290    4.5674    0.9007 C   0  0  0  0  0  0  0  0  0  0  0  0
    1.1761    0.0528   -0.9142 N   0  0  0  0  0  0  0  0  0  0  0  0
    1.8891   -0.4832    0.2248 C   0  0  0  0  0  0  0  0  0  0  0  0
    1.2702   -1.1657    1.0850 O   0  0  0  0  0  0  0  0  0  0  0  0
    3.3320   -0.2425    0.4251 C   0  0  0  0  0  0  0  0  0  0  0  0
    4.1025   -0.8241    1.4110 C   0  0  0  0  0  0  0  0  0  0  0  0
    5.3712   -0.3035    1.2274 C   0  0  0  0  0  0  0  0  0  0  0  0
    5.2907    0.5595    0.1486 C   0  0  0  0  0  0  0  0  0  0  0  0
    4.0591    0.5693   -0.3001 O   0  0  0  0  0  0  0  0  0  0  0  0
    1.8928    0.4453   -2.1298 C   0  0  0  0  0  0  0  0  0  0  0  0
    2.4768   -0.7850   -2.8063 C   0  0  0  0  0  0  0  0  0  0  0  0
    1.2268   -0.1471   -3.3627 C   0  0  0  0  0  0  0  0  0  0  0  0
   -1.4224   -1.6205   -1.6991 C   0  0  0  0  0  0  0  0  0  0  0  0
   -2.2375   -2.7433   -1.5346 C   0  0  0  0  0  0  0  0  0  0  0  0
  1  2  1  0
  2  3  1  0
  2  4  1  0
  4  5  2  0
  4 29  1  0
  5  6  1  0
  6  7  2  0
  7  8  1  0
  7 28  1  0
  8  9  1  0
  8 17  1  1
  9 10  2  0
  9 11  1  0
 11 12  1  0
 12 13  1  0
 12 16  1  0
 13 14  1  0
 14 15  1  0
 15 16  1  0
 17 18  1  0
 17 25  1  0
 18 19  2  0
 18 20  1  0
 20 21  2  0
 20 24  1  0
 21 22  1  0
 22 23  2  0
 23 24  1  0
 25 26  1  0
 25 27  1  0
 26 27  1  0
 28 29  2  0
M  END
$$$$
