
 OpenBabel05012320183D

 16 15  0  0  0  0  0  0  0  0999 V2000
    1.0101    0.0004    0.1007 C   0  0  0  0  0  0  0  0  0  0  0  0
    2.5303   -0.0092    0.1108 C   0  0  0  0  0  0  0  0  0  0  0  0
    3.0739   -0.9924    1.1475 C   0  0  0  0  0  0  0  0  0  0  0  0
    4.6016   -1.0014    1.1571 C   0  0  0  0  0  0  0  0  0  0  0  0
    5.0636   -1.9611    2.1662 N   0  0  0  0  0  0  0  0  0  0  0  0
    6.2988   -2.0707    2.2837 N   0  3  0  0  0  0  0  0  0  0  0  0
    7.4279   -2.1734    2.3938 N   0  5  0  0  0  0  0  0  0  0  0  0
    0.6383    0.7087   -0.6462 H   0  0  0  0  0  0  0  0  0  0  0  0
    0.6148    0.2971    1.0774 H   0  0  0  0  0  0  0  0  0  0  0  0
    0.6148   -0.9906   -0.1439 H   0  0  0  0  0  0  0  0  0  0  0  0
    2.8950    1.0018    0.3272 H   0  0  0  0  0  0  0  0  0  0  0  0
    2.8950   -0.2789   -0.8873 H   0  0  0  0  0  0  0  0  0  0  0  0
    2.6986   -2.0010    0.9326 H   0  0  0  0  0  0  0  0  0  0  0  0
    2.6986   -0.7243    2.1433 H   0  0  0  0  0  0  0  0  0  0  0  0
    4.9769    0.0019    1.3919 H   0  0  0  0  0  0  0  0  0  0  0  0
    4.9770   -1.2863    0.1668 H   0  0  0  0  0  0  0  0  0  0  0  0
  1  2  1  0  0  0  0
  1  8  1  0  0  0  0
  1  9  1  0  0  0  0
  1 10  1  0  0  0  0
  2  3  1  0  0  0  0
  2 11  1  0  0  0  0
  2 12  1  0  0  0  0
  3  4  1  0  0  0  0
  3 13  1  0  0  0  0
  3 14  1  0  0  0  0
  4  5  1  0  0  0  0
  4 15  1  0  0  0  0
  4 16  1  0  0  0  0
  5  6  2  0  0  0  0
  6  7  2  0  0  0  0
M  CHG  2   6   1   7  -1
M  END
$$$$

 OpenBabel05012320183D

 16 15  0  0  0  0  0  0  0  0999 V2000
    0.9694   -0.0603    0.0342 C   0  0  0  0  0  0  0  0  0  0  0  0
    2.4901   -0.0532    0.0040 C   0  0  0  0  0  0  0  0  0  0  0  0
    3.0156    0.2876   -1.3916 C   0  0  0  0  0  0  0  0  0  0  0  0
    4.5428    0.2952   -1.4244 C   0  0  0  0  0  0  0  0  0  0  0  0
    5.1140    0.7051   -3.1011 S   0  0  0  0  0  0  0  0  0  0  0  0
    6.7753    0.6321   -2.8081 C   0  0  0  0  0  0  0  0  0  0  0  0
    7.9130    0.5780   -2.5909 N   0  0  0  0  0  0  0  0  0  0  0  0
    0.6097   -0.3053    1.0383 H   0  0  0  0  0  0  0  0  0  0  0  0
    0.5672   -0.8037   -0.6615 H   0  0  0  0  0  0  0  0  0  0  0  0
    0.5673    0.9200   -0.2413 H   0  0  0  0  0  0  0  0  0  0  0  0
    2.8611   -1.0374    0.3130 H   0  0  0  0  0  0  0  0  0  0  0  0
    2.8614    0.6778    0.7317 H   0  0  0  0  0  0  0  0  0  0  0  0
    2.6286    1.2707   -1.6891 H   0  0  0  0  0  0  0  0  0  0  0  0
    2.6283   -0.4475   -2.1088 H   0  0  0  0  0  0  0  0  0  0  0  0
    4.9317   -0.6887   -1.1395 H   0  0  0  0  0  0  0  0  0  0  0  0
    4.9322    1.0364   -0.7176 H   0  0  0  0  0  0  0  0  0  0  0  0
  1  2  1  0  0  0  0
  1  8  1  0  0  0  0
  1  9  1  0  0  0  0
  1 10  1  0  0  0  0
  2  3  1  0  0  0  0
  2 11  1  0  0  0  0
  2 12  1  0  0  0  0
  3  4  1  0  0  0  0
  3 13  1  0  0  0  0
  3 14  1  0  0  0  0
  4  5  1  0  0  0  0
  4 15  1  0  0  0  0
  4 16  1  0  0  0  0
  5  6  1  0  0  0  0
  6  7  3  0  0  0  0
M  END
$$$$
