CHEMBL594634
  -OEChem-07121202273D

 59 63  0     0  0  0  0  0  0999 V2000
   -0.4393    1.3621   -2.8644 C   0  0  0  0  0  0  0  0  0  0  0  0
   -0.3854   -0.1580   -2.6991 C   0  0  0  0  0  0  0  0  0  0  0  0
    0.8175   -0.5837   -1.4097 S   0  0  0  0  0  0  0  0  0  0  0  0
    2.1332   -0.2689   -1.8446 O   0  0  0  0  0  0  0  0  0  0  0  0
    0.3501   -0.1469   -0.1408 O   0  0  0  0  0  0  0  0  0  0  0  0
    0.7823   -2.3431   -1.3206 C   0  0  0  0  0  0  0  0  0  0  0  0
   -0.1007   -2.9731   -0.4631 C   0  0  0  0  0  0  0  0  0  0  0  0
   -0.1307   -4.3523   -0.3916 C   0  0  0  0  0  0  0  0  0  0  0  0
    0.7263   -5.1055   -1.1813 C   0  0  0  0  0  0  0  0  0  0  0  0
    1.6115   -4.4707   -2.0410 C   0  0  0  0  0  0  0  0  0  0  0  0
    1.6337   -3.0914   -2.1124 C   0  0  0  0  0  0  0  0  0  0  0  0
    0.6992   -6.4623   -1.1126 O   0  0  0  0  0  0  0  0  0  0  0  0
   -0.4074   -7.1024   -1.5737 C   0  0  0  0  0  0  0  0  0  0  0  0
   -1.4041   -6.3829   -2.2094 C   0  0  0  0  0  0  0  0  0  0  0  0
   -2.5324   -7.0396   -2.6789 C   0  0  0  0  0  0  0  0  0  0  0  0
   -2.6564   -8.4307   -2.5063 C   0  0  0  0  0  0  0  0  0  0  0  0
   -1.6369   -9.1387   -1.8604 C   0  0  0  0  0  0  0  0  0  0  0  0
   -0.5298   -8.4800   -1.4091 C   0  0  0  0  0  0  0  0  0  0  0  0
    0.5675   -9.2496   -0.7201 C   0  0  0  0  0  0  0  0  0  0  0  0
    0.4333   -9.0981    0.7309 N   0  0  0  0  0  0  0  0  0  0  0  0
    1.1158   -7.9853    1.3868 C   0  0  0  0  0  0  0  0  0  0  0  0
    0.5014   -7.7369    2.7660 C   0  0  0  0  0  0  0  0  0  0  0  0
    0.4173   -8.9859    3.4623 O   0  0  0  0  0  0  0  0  0  0  0  0
   -0.5362   -9.8826    2.8873 C   0  0  0  0  0  0  0  0  0  0  0  0
   -0.3143   -9.9816    1.4037 C   0  0  0  0  0  0  0  0  0  0  0  0
   -0.8270  -10.8972    0.7956 O   0  0  0  0  0  0  0  0  0  0  0  0
   -3.8402   -8.7976   -3.0537 N   0  0  0  0  0  0  0  0  0  0  0  0
   -4.4442   -7.7441   -3.5439 C   0  0  0  0  0  0  0  0  0  0  0  0
   -3.6745   -6.6299   -3.3368 N   0  0  0  0  0  0  0  0  0  0  0  0
   -5.7604   -7.7555   -4.2199 C   0  0  0  0  0  0  0  0  0  0  0  0
   -6.4530   -8.9572   -4.3652 C   0  0  0  0  0  0  0  0  0  0  0  0
   -7.6831   -8.9516   -4.9999 C   0  0  0  0  0  0  0  0  0  0  0  0
   -8.1811   -7.7442   -5.4688 C   0  0  0  0  0  0  0  0  0  0  0  0
   -7.4405   -6.5892   -5.2905 C   0  0  0  0  0  0  0  0  0  0  0  0
   -6.2751   -6.6208   -4.6785 N   0  0  0  0  0  0  0  0  0  0  0  0
   -0.7399    1.8196   -1.9219 H   0  0  0  0  0  0  0  0  0  0  0  0
    0.5455    1.7317   -3.1500 H   0  0  0  0  0  0  0  0  0  0  0  0
   -1.1621    1.6178   -3.6392 H   0  0  0  0  0  0  0  0  0  0  0  0
   -1.3702   -0.5276   -2.4135 H   0  0  0  0  0  0  0  0  0  0  0  0
   -0.0848   -0.6156   -3.6416 H   0  0  0  0  0  0  0  0  0  0  0  0
   -0.7673   -2.3864    0.1515 H   0  0  0  0  0  0  0  0  0  0  0  0
   -0.8204   -4.8439    0.2785 H   0  0  0  0  0  0  0  0  0  0  0  0
    2.2796   -5.0546   -2.6567 H   0  0  0  0  0  0  0  0  0  0  0  0
    2.3194   -2.5969   -2.7846 H   0  0  0  0  0  0  0  0  0  0  0  0
   -1.3042   -5.3153   -2.3391 H   0  0  0  0  0  0  0  0  0  0  0  0
   -1.7236  -10.2065   -1.7235 H   0  0  0  0  0  0  0  0  0  0  0  0
    0.4921  -10.3046   -0.9838 H   0  0  0  0  0  0  0  0  0  0  0  0
    1.5363   -8.8641   -1.0376 H   0  0  0  0  0  0  0  0  0  0  0  0
    2.1731   -8.2250    1.4994 H   0  0  0  0  0  0  0  0  0  0  0  0
    1.0124   -7.0875    0.7774 H   0  0  0  0  0  0  0  0  0  0  0  0
    1.1307   -7.0467    3.3278 H   0  0  0  0  0  0  0  0  0  0  0  0
   -0.4968   -7.3144    2.6510 H   0  0  0  0  0  0  0  0  0  0  0  0
   -0.4252  -10.8682    3.3394 H   0  0  0  0  0  0  0  0  0  0  0  0
   -1.5431   -9.5101    3.0753 H   0  0  0  0  0  0  0  0  0  0  0  0
   -6.0354   -9.8791   -3.9883 H   0  0  0  0  0  0  0  0  0  0  0  0
   -8.2427   -9.8664   -5.1275 H   0  0  0  0  0  0  0  0  0  0  0  0
   -9.1377   -7.7065   -5.9686 H   0  0  0  0  0  0  0  0  0  0  0  0
   -7.8256   -5.6482   -5.6545 H   0  0  0  0  0  0  0  0  0  0  0  0
   -3.8916   -5.7227   -3.6026 H   0  0  0  0  0  0  0  0  0  0  0  0
  1  2  1  0  0  0  0
  1 36  1  0  0  0  0
  1 37  1  0  0  0  0
  1 38  1  0  0  0  0
  2  3  1  0  0  0  0
  2 39  1  0  0  0  0
  2 40  1  0  0  0  0
  3  4  2  0  0  0  0
  3  5  2  0  0  0  0
  3  6  1  0  0  0  0
  6 11  2  0  0  0  0
  6  7  1  0  0  0  0
  7  8  2  0  0  0  0
  7 41  1  0  0  0  0
  8  9  1  0  0  0  0
  8 42  1  0  0  0  0
  9 10  2  0  0  0  0
  9 12  1  0  0  0  0
 10 11  1  0  0  0  0
 10 43  1  0  0  0  0
 11 44  1  0  0  0  0
 12 13  1  0  0  0  0
 13 18  2  0  0  0  0
 13 14  1  0  0  0  0
 14 15  2  0  0  0  0
 14 45  1  0  0  0  0
 15 29  1  0  0  0  0
 15 16  1  0  0  0  0
 16 17  2  0  0  0  0
 16 27  1  0  0  0  0
 17 18  1  0  0  0  0
 17 46  1  0  0  0  0
 18 19  1  0  0  0  0
 19 20  1  0  0  0  0
 19 47  1  0  0  0  0
 19 48  1  0  0  0  0
 20 25  1  0  0  0  0
 20 21  1  0  0  0  0
 21 22  1  0  0  0  0
 21 49  1  0  0  0  0
 21 50  1  0  0  0  0
 22 23  1  0  0  0  0
 22 51  1  0  0  0  0
 22 52  1  0  0  0  0
 23 24  1  0  0  0  0
 24 25  1  0  0  0  0
 24 53  1  0  0  0  0
 24 54  1  0  0  0  0
 25 26  2  0  0  0  0
 27 28  2  0  0  0  0
 28 29  1  0  0  0  0
 28 30  1  0  0  0  0
 29 59  1  0  0  0  0
 30 35  2  0  0  0  0
 30 31  1  0  0  0  0
 31 32  2  0  0  0  0
 31 55  1  0  0  0  0
 32 33  1  0  0  0  0
 32 56  1  0  0  0  0
 33 34  2  0  0  0  0
 33 57  1  0  0  0  0
 34 35  1  0  0  0  0
 34 58  1  0  0  0  0
M  END
$$$$
CHEMBL594634
  -OEChem-07121202273D

 59 63  0     0  0  0  0  0  0999 V2000
   -2.2921    1.3121    1.8113 C   0  0  0  0  0  0  0  0  0  0  0  0
   -2.1384   -0.2051    1.6877 C   0  0  0  0  0  0  0  0  0  0  0  0
   -1.6122   -0.6243    0.0031 S   0  0  0  0  0  0  0  0  0  0  0  0
   -2.6537   -0.3387   -0.9204 O   0  0  0  0  0  0  0  0  0  0  0  0
   -0.2907   -0.1558   -0.2278 O   0  0  0  0  0  0  0  0  0  0  0  0
   -1.4741   -2.3809   -0.0043 C   0  0  0  0  0  0  0  0  0  0  0  0
   -0.2749   -2.9803    0.3344 C   0  0  0  0  0  0  0  0  0  0  0  0
   -0.1640   -4.3572    0.3295 C   0  0  0  0  0  0  0  0  0  0  0  0
   -1.2572   -5.1389   -0.0158 C   0  0  0  0  0  0  0  0  0  0  0  0
   -2.4594   -4.5348   -0.3553 C   0  0  0  0  0  0  0  0  0  0  0  0
   -2.5666   -3.1577   -0.3432 C   0  0  0  0  0  0  0  0  0  0  0  0
   -1.1506   -6.4935   -0.0218 O   0  0  0  0  0  0  0  0  0  0  0  0
   -0.9811   -7.1257    1.1697 C   0  0  0  0  0  0  0  0  0  0  0  0
   -1.0514   -6.4047    2.3448 C   0  0  0  0  0  0  0  0  0  0  0  0
   -0.8768   -7.0566    3.5701 C   0  0  0  0  0  0  0  0  0  0  0  0
   -0.6313   -8.4416    3.5887 C   0  0  0  0  0  0  0  0  0  0  0  0
   -0.5643   -9.1508    2.3975 C   0  0  0  0  0  0  0  0  0  0  0  0
   -0.7434   -8.4975    1.1974 C   0  0  0  0  0  0  0  0  0  0  0  0
   -0.6756   -9.2717   -0.0938 C   0  0  0  0  0  0  0  0  0  0  0  0
    0.6441   -9.0902   -0.7034 N   0  0  0  0  0  0  0  0  0  0  0  0
    0.8437   -7.9764   -1.6274 C   0  0  0  0  0  0  0  0  0  0  0  0
    2.3388   -7.6915   -1.7855 C   0  0  0  0  0  0  0  0  0  0  0  0
    3.0147   -8.9254   -2.0549 O   0  0  0  0  0  0  0  0  0  0  0  0
    3.0153   -9.8172   -0.9375 C   0  0  0  0  0  0  0  0  0  0  0  0
    1.6221   -9.9482   -0.3879 C   0  0  0  0  0  0  0  0  0  0  0  0
    1.3743  -10.8668    0.3643 O   0  0  0  0  0  0  0  0  0  0  0  0
   -0.5049   -8.7919    4.9194 N   0  0  0  0  0  0  0  0  0  0  0  0
   -0.3306   -9.6806    5.2667 H   0  0  0  0  0  0  0  0  0  0  0  0
   -0.6707   -7.6503    5.6556 C   0  0  0  0  0  0  0  0  0  0  0  0
   -0.8887   -6.6350    4.8572 N   0  0  0  0  0  0  0  0  0  0  0  0
   -0.6132   -7.5744    7.1325 C   0  0  0  0  0  0  0  0  0  0  0  0
   -0.8044   -6.3491    7.7700 C   0  0  0  0  0  0  0  0  0  0  0  0
   -0.7481   -6.2943    9.1521 C   0  0  0  0  0  0  0  0  0  0  0  0
   -0.5023   -7.4669    9.8520 C   0  0  0  0  0  0  0  0  0  0  0  0
   -0.3218   -8.6485    9.1549 C   0  0  0  0  0  0  0  0  0  0  0  0
   -0.3853   -8.6745    7.8401 N   0  0  0  0  0  0  0  0  0  0  0  0
   -2.6083    1.5640    2.8235 H   0  0  0  0  0  0  0  0  0  0  0  0
   -1.3370    1.7925    1.5988 H   0  0  0  0  0  0  0  0  0  0  0  0
   -3.0404    1.6607    1.0995 H   0  0  0  0  0  0  0  0  0  0  0  0
   -1.3901   -0.5537    2.3994 H   0  0  0  0  0  0  0  0  0  0  0  0
   -3.0935   -0.6856    1.9001 H   0  0  0  0  0  0  0  0  0  0  0  0
    0.5757   -2.3714    0.6027 H   0  0  0  0  0  0  0  0  0  0  0  0
    0.7730   -4.8249    0.5938 H   0  0  0  0  0  0  0  0  0  0  0  0
   -3.3118   -5.1410   -0.6243 H   0  0  0  0  0  0  0  0  0  0  0  0
   -3.5034   -2.6871   -0.6028 H   0  0  0  0  0  0  0  0  0  0  0  0
   -1.2400   -5.3416    2.3182 H   0  0  0  0  0  0  0  0  0  0  0  0
   -0.3755  -10.2141    2.4113 H   0  0  0  0  0  0  0  0  0  0  0  0
   -0.8401  -10.3301    0.1081 H   0  0  0  0  0  0  0  0  0  0  0  0
   -1.4440   -8.9083   -0.7761 H   0  0  0  0  0  0  0  0  0  0  0  0
    0.4190   -8.2311   -2.5984 H   0  0  0  0  0  0  0  0  0  0  0  0
    0.3453   -7.0889   -1.2375 H   0  0  0  0  0  0  0  0  0  0  0  0
    2.4938   -7.0010   -2.6145 H   0  0  0  0  0  0  0  0  0  0  0  0
    2.7272   -7.2550   -0.8654 H   0  0  0  0  0  0  0  0  0  0  0  0
    3.3759  -10.7956   -1.2550 H   0  0  0  0  0  0  0  0  0  0  0  0
    3.6718   -9.4247   -0.1609 H   0  0  0  0  0  0  0  0  0  0  0  0
   -0.9934   -5.4555    7.1938 H   0  0  0  0  0  0  0  0  0  0  0  0
   -0.8919   -5.3597    9.6739 H   0  0  0  0  0  0  0  0  0  0  0  0
   -0.4520   -7.4574   10.9308 H   0  0  0  0  0  0  0  0  0  0  0  0
   -0.1300   -9.5627    9.6970 H   0  0  0  0  0  0  0  0  0  0  0  0
  1  2  1  0  0  0  0
  1 37  1  0  0  0  0
  1 38  1  0  0  0  0
  1 39  1  0  0  0  0
  2  3  1  0  0  0  0
  2 40  1  0  0  0  0
  2 41  1  0  0  0  0
  3  4  2  0  0  0  0
  3  5  2  0  0  0  0
  3  6  1  0  0  0  0
  6 11  2  0  0  0  0
  6  7  1  0  0  0  0
  7  8  2  0  0  0  0
  7 42  1  0  0  0  0
  8  9  1  0  0  0  0
  8 43  1  0  0  0  0
  9 10  2  0  0  0  0
  9 12  1  0  0  0  0
 10 11  1  0  0  0  0
 10 44  1  0  0  0  0
 11 45  1  0  0  0  0
 12 13  1  0  0  0  0
 13 18  2  0  0  0  0
 13 14  1  0  0  0  0
 14 15  2  0  0  0  0
 14 46  1  0  0  0  0
 15 30  1  0  0  0  0
 15 16  1  0  0  0  0
 16 17  2  0  0  0  0
 16 27  1  0  0  0  0
 17 18  1  0  0  0  0
 17 47  1  0  0  0  0
 18 19  1  0  0  0  0
 19 20  1  0  0  0  0
 19 48  1  0  0  0  0
 19 49  1  0  0  0  0
 20 25  1  0  0  0  0
 20 21  1  0  0  0  0
 21 22  1  0  0  0  0
 21 50  1  0  0  0  0
 21 51  1  0  0  0  0
 22 23  1  0  0  0  0
 22 52  1  0  0  0  0
 22 53  1  0  0  0  0
 23 24  1  0  0  0  0
 24 25  1  0  0  0  0
 24 54  1  0  0  0  0
 24 55  1  0  0  0  0
 25 26  2  0  0  0  0
 27 28  1  0  0  0  0
 27 29  1  0  0  0  0
 29 30  2  0  0  0  0
 29 31  1  0  0  0  0
 31 36  2  0  0  0  0
 31 32  1  0  0  0  0
 32 33  2  0  0  0  0
 32 56  1  0  0  0  0
 33 34  1  0  0  0  0
 33 57  1  0  0  0  0
 34 35  2  0  0  0  0
 34 58  1  0  0  0  0
 35 36  1  0  0  0  0
 35 59  1  0  0  0  0
M  END
$$$$