
 OpenBabel09132302133D

  5  4  0  0  0  0  0  0  0  0999 V2000
    2.1425   -1.8814    0.0509 Cl  0  0  0  0  0  0  0  0  0  0  0  0
   -0.1228   -4.3016   -0.0957 Cl  0  0  0  0  0  0  0  0  0  0  0  0
   -0.2826    0.1006    0.1592 N   0  0  0  0  0  0  0  0  0  0  0  0
   -2.2678   -2.0141    0.0449 N   0  0  0  0  0  0  0  0  0  0  0  0
   -0.2163   -1.9472    0.0439 Pt  0  0  0  0  0  0  0  0  0  0  0  0
  5  1  1  0  0  0  0
  5  2  1  0  0  0  0
  5  3  1  0  0  0  0
  5  4  1  0  0  0  0
M  END
$$$$

 OpenBabel09132302143D

  5  4  0  0  0  0  0  0  0  0999 V2000
    2.1633   -1.9611   -0.0676 Cl  0  0  0  0  0  0  0  0  0  0  0  0
   -0.1767   -4.0264   -0.2776 N   0  0  0  0  0  0  0  0  0  0  0  0
   -0.2221    0.0533    0.1602 N   0  0  0  0  0  0  0  0  0  0  0  0
   -2.5601   -2.0120   -0.0499 Cl  0  0  0  0  0  0  0  0  0  0  0  0
   -0.1986   -1.9866   -0.0587 Pt  0  0  0  0  0  0  0  0  0  0  0  0
  5  1  1  0  0  0  0
  5  2  1  0  0  0  0
  5  3  1  0  0  0  0
  5  4  1  0  0  0  0
M  END
$$$$