
 OpenBabel04262302193D

 12 12  0  0  0  0  0  0  0  0999 V2000
   -2.5373    0.6839   -0.0125 C   0  0  0  0  0  0  0  0  0  0  0  0
   -2.5262   -0.7095    0.0263 C   0  0  0  0  0  0  0  0  0  0  0  0
   -1.3113   -1.3976    0.0388 C   0  0  0  0  0  0  0  0  0  0  0  0
   -0.1033   -0.6932    0.0146 C   0  0  0  0  0  0  0  0  0  0  0  0
   -0.1141    0.7056   -0.0196 C   0  0  0  0  0  0  0  0  0  0  0  0
   -1.3337    1.3908   -0.0351 C   0  0  0  0  0  0  0  0  0  0  0  0
    1.3360    1.6445   -0.0436 Cl  0  0  0  0  0  0  0  0  0  0  0  0
    1.3617   -1.6094    0.0283 Cl  0  0  0  0  0  0  0  0  0  0  0  0
   -3.4832    1.2209   -0.0244 H   0  0  0  0  0  0  0  0  0  0  0  0
   -3.4636   -1.2611    0.0455 H   0  0  0  0  0  0  0  0  0  0  0  0
   -1.3129   -2.4846    0.0675 H   0  0  0  0  0  0  0  0  0  0  0  0
   -1.3522    2.4778   -0.0637 H   0  0  0  0  0  0  0  0  0  0  0  0
  1  2  2  0  0  0  0
  1  6  1  0  0  0  0
  1  9  1  0  0  0  0
  2  3  1  0  0  0  0
  2 10  1  0  0  0  0
  3  4  2  0  0  0  0
  3 11  1  0  0  0  0
  4  5  1  0  0  0  0
  4  8  1  0  0  0  0
  5  6  2  0  0  0  0
  5  7  1  0  0  0  0
  6 12  1  0  0  0  0
M  END
$$$$

 OpenBabel04262302193D

 12 12  0  0  0  0  0  0  0  0999 V2000
    0.6337    1.2145    0.5742 C   0  0  0  0  0  0  0  0  0  0  0  0
   -0.7599    1.2131    0.5477 C   0  0  0  0  0  0  0  0  0  0  0  0
   -1.4486    0.0802    0.1108 C   0  0  0  0  0  0  0  0  0  0  0  0
   -0.7444   -1.0551   -0.3046 C   0  0  0  0  0  0  0  0  0  0  0  0
    0.6546   -1.0534   -0.2792 C   0  0  0  0  0  0  0  0  0  0  0  0
    1.3407    0.0826    0.1628 C   0  0  0  0  0  0  0  0  0  0  0  0
    1.5932   -2.4151   -0.7798 Cl  0  0  0  0  0  0  0  0  0  0  0  0
   -1.6613   -2.4197   -0.8365 Cl  0  0  0  0  0  0  0  0  0  0  0  0
    1.1714    2.0967    0.9149 H   0  0  0  0  0  0  0  0  0  0  0  0
   -1.3112    2.0947    0.8672 H   0  0  0  0  0  0  0  0  0  0  0  0
   -2.5360    0.0880    0.0954 H   0  0  0  0  0  0  0  0  0  0  0  0
    2.4276    0.0926    0.1877 H   0  0  0  0  0  0  0  0  0  0  0  0
  1  2  2  0  0  0  0
  1  6  1  0  0  0  0
  1  9  1  0  0  0  0
  2  3  1  0  0  0  0
  2 10  1  0  0  0  0
  3  4  2  0  0  0  0
  3  8  1  0  0  0  0
  4  5  1  0  0  0  0
  4 11  1  0  0  0  0
  5  6  2  0  0  0  0
  5 12  1  0  0  0  0
  6  7  1  0  0  0  0
M  END
$$$$
