
 OpenBabel04252319483D

 12 12  0  0  0  0  0  0  0  0999 V2000
    1.3829   -0.2211    0.0055 C   0  0  0  0  0  0  0  0  0  0  0  0
    0.5068   -1.3064   -0.0076 C   0  0  0  0  0  0  0  0  0  0  0  0
   -0.8712   -1.0904   -0.0147 C   0  0  0  0  0  0  0  0  0  0  0  0
   -1.3730    0.2110   -0.0046 C   0  0  0  0  0  0  0  0  0  0  0  0
   -0.4968    1.2961    0.0109 C   0  0  0  0  0  0  0  0  0  0  0  0
    0.8812    1.0801    0.0137 C   0  0  0  0  0  0  0  0  0  0  0  0
    2.4567   -0.3898    0.0094 H   0  0  0  0  0  0  0  0  0  0  0  0
    0.8977   -2.3203   -0.0126 H   0  0  0  0  0  0  0  0  0  0  0  0
   -1.5537   -1.9359   -0.0279 H   0  0  0  0  0  0  0  0  0  0  0  0
   -2.4466    0.3794   -0.0086 H   0  0  0  0  0  0  0  0  0  0  0  0
   -0.8877    2.3100    0.0204 H   0  0  0  0  0  0  0  0  0  0  0  0
    1.5639    1.9256    0.0225 H   0  0  0  0  0  0  0  0  0  0  0  0
  1  2  1  0  0  0  0
  1  6  2  0  0  0  0
  1  7  1  0  0  0  0
  2  3  2  0  0  0  0
  2  8  1  0  0  0  0
  3  4  1  0  0  0  0
  3  9  1  0  0  0  0
  4  5  2  0  0  0  0
  4 10  1  0  0  0  0
  5  6  1  0  0  0  0
  5 11  1  0  0  0  0
  6 12  1  0  0  0  0
M  END
$$$$

 OpenBabel04252319483D

 15 16  0  0  0  0  0  0  0  0999 V2000
    2.2183   -0.6233    0.0021 C   0  0  0  0  0  0  0  0  0  0  0  0
    2.1196    0.7708   -0.0077 C   0  0  0  0  0  0  0  0  0  0  0  0
    0.8743    1.4081   -0.0118 C   0  0  0  0  0  0  0  0  0  0  0  0
   -0.2463    0.5809   -0.0104 C   0  0  0  0  0  0  0  0  0  0  0  0
   -0.1910   -0.8084   -0.0020 C   0  0  0  0  0  0  0  0  0  0  0  0
    1.0703   -1.4300    0.0067 C   0  0  0  0  0  0  0  0  0  0  0  0
   -1.5411   -1.2474   -0.0062 C   0  0  0  0  0  0  0  0  0  0  0  0
   -2.3191   -0.1123   -0.0183 C   0  0  0  0  0  0  0  0  0  0  0  0
   -1.5417    1.0021   -0.0191 O   0  0  0  0  0  0  0  0  0  0  0  0
    3.2000   -1.0921    0.0048 H   0  0  0  0  0  0  0  0  0  0  0  0
    3.0259    1.3727   -0.0125 H   0  0  0  0  0  0  0  0  0  0  0  0
    0.7782    2.4867   -0.0185 H   0  0  0  0  0  0  0  0  0  0  0  0
    1.1586   -2.5122    0.0145 H   0  0  0  0  0  0  0  0  0  0  0  0
   -1.9015   -2.2657   -0.0033 H   0  0  0  0  0  0  0  0  0  0  0  0
   -3.3855    0.0647   -0.0276 H   0  0  0  0  0  0  0  0  0  0  0  0
  1  2  2  0  0  0  0
  1  6  1  0  0  0  0
  1 10  1  0  0  0  0
  2  3  1  0  0  0  0
  2 11  1  0  0  0  0
  3  4  2  0  0  0  0
  3 12  1  0  0  0  0
  4  5  1  0  0  0  0
  4  9  1  0  0  0  0
  5  6  2  0  0  0  0
  5  7  1  0  0  0  0
  6 13  1  0  0  0  0
  7  8  2  0  0  0  0
  7 14  1  0  0  0  0
  8  9  1  0  0  0  0
  8 15  1  0  0  0  0
M  END
$$$$

 OpenBabel04252319483D

 15 16  0  0  0  0  0  0  0  0999 V2000
    2.2183   -0.6233    0.0021 C   0  0  0  0  0  0  0  0  0  0  0  0
    2.1196    0.7708   -0.0077 C   0  0  0  0  0  0  0  0  0  0  0  0
    0.8743    1.4081   -0.0118 C   0  0  0  0  0  0  0  0  0  0  0  0
   -0.2463    0.5809   -0.0104 C   0  0  0  0  0  0  0  0  0  0  0  0
   -0.1910   -0.8084   -0.0020 C   0  0  0  0  0  0  0  0  0  0  0  0
    1.0703   -1.4300    0.0067 C   0  0  0  0  0  0  0  0  0  0  0  0
   -1.5411   -1.2474   -0.0062 C   0  0  0  0  0  0  0  0  0  0  0  0
   -2.3191   -0.1123   -0.0183 C   0  0  0  0  0  0  0  0  0  0  0  0
   -1.5417    1.0021   -0.0191 N   0  0  0  0  0  0  0  0  0  0  0  0
    3.2000   -1.0921    0.0048 H   0  0  0  0  0  0  0  0  0  0  0  0
    3.0259    1.3727   -0.0125 H   0  0  0  0  0  0  0  0  0  0  0  0
    0.7782    2.4867   -0.0185 H   0  0  0  0  0  0  0  0  0  0  0  0
    1.1586   -2.5122    0.0145 H   0  0  0  0  0  0  0  0  0  0  0  0
   -1.9015   -2.2657   -0.0033 H   0  0  0  0  0  0  0  0  0  0  0  0
   -3.3855    0.0647   -0.0276 H   0  0  0  0  0  0  0  0  0  0  0  0
  1  2  2  0  0  0  0
  1  6  1  0  0  0  0
  1 10  1  0  0  0  0
  2  3  1  0  0  0  0
  2 11  1  0  0  0  0
  3  4  2  0  0  0  0
  3 12  1  0  0  0  0
  4  5  1  0  0  0  0
  4  9  1  0  0  0  0
  5  6  2  0  0  0  0
  5  7  1  0  0  0  0
  6 13  1  0  0  0  0
  7  8  2  0  0  0  0
  7 14  1  0  0  0  0
  8  9  1  0  0  0  0
  8 15  1  0  0  0  0
M  END

$$$$

 OpenBabel04252319483D

 15 16  0  0  0  0  0  0  0  0999 V2000
    2.2183   -0.6233    0.0021 C   0  0  0  0  0  0  0  0  0  0  0  0
    2.1196    0.7708   -0.0077 C   0  0  0  0  0  0  0  0  0  0  0  0
    0.8743    1.4081   -0.0118 C   0  0  0  0  0  0  0  0  0  0  0  0
   -0.2463    0.5809   -0.0104 C   0  0  0  0  0  0  0  0  0  0  0  0
   -0.1910   -0.8084   -0.0020 C   0  0  0  0  0  0  0  0  0  0  0  0
    1.0703   -1.4300    0.0067 C   0  0  0  0  0  0  0  0  0  0  0  0
   -1.5411   -1.2474   -0.0062 C   0  0  0  0  0  0  0  0  0  0  0  0
   -2.3191   -0.1123   -0.0183 N   0  0  0  0  0  0  0  0  0  0  0  0
   -1.5417    1.0021   -0.0191 C   0  0  0  0  0  0  0  0  0  0  0  0
    3.2000   -1.0921    0.0048 H   0  0  0  0  0  0  0  0  0  0  0  0
    3.0259    1.3727   -0.0125 H   0  0  0  0  0  0  0  0  0  0  0  0
    0.7782    2.4867   -0.0185 H   0  0  0  0  0  0  0  0  0  0  0  0
    1.1586   -2.5122    0.0145 H   0  0  0  0  0  0  0  0  0  0  0  0
   -1.9015   -2.2657   -0.0033 H   0  0  0  0  0  0  0  0  0  0  0  0
   -3.3855    0.0647   -0.0276 H   0  0  0  0  0  0  0  0  0  0  0  0
  1  2  2  0  0  0  0
  1  6  1  0  0  0  0
  1 10  1  0  0  0  0
  2  3  1  0  0  0  0
  2 11  1  0  0  0  0
  3  4  2  0  0  0  0
  3 12  1  0  0  0  0
  4  5  1  0  0  0  0
  4  9  1  0  0  0  0
  5  6  2  0  0  0  0
  5  7  1  0  0  0  0
  6 13  1  0  0  0  0
  7  8  2  0  0  0  0
  7 14  1  0  0  0  0
  8  9  1  0  0  0  0
  8 15  1  0  0  0  0
M  END
$$$$

 OpenBabel04252319483D

 15 16  0  0  0  0  0  0  0  0999 V2000
    2.2183   -0.6233    0.0021 C   0  0  0  0  0  0  0  0  0  0  0  0
    2.1196    0.7708   -0.0077 C   0  0  0  0  0  0  0  0  0  0  0  0
    0.8743    1.4081   -0.0118 C   0  0  0  0  0  0  0  0  0  0  0  0
   -0.2463    0.5809   -0.0104 C   0  0  0  0  0  0  0  0  0  0  0  0
   -0.1910   -0.8084   -0.0020 C   0  0  0  0  0  0  0  0  0  0  0  0
    1.0703   -1.4300    0.0067 C   0  0  0  0  0  0  0  0  0  0  0  0
   -1.5411   -1.2474   -0.0062 C   0  0  0  0  0  0  0  0  0  0  0  0
   -2.3191   -0.1123   -0.0183 O   0  0  0  0  0  0  0  0  0  0  0  0
   -1.5417    1.0021   -0.0191 C   0  0  0  0  0  0  0  0  0  0  0  0
    3.2000   -1.0921    0.0048 H   0  0  0  0  0  0  0  0  0  0  0  0
    3.0259    1.3727   -0.0125 H   0  0  0  0  0  0  0  0  0  0  0  0
    0.7782    2.4867   -0.0185 H   0  0  0  0  0  0  0  0  0  0  0  0
    1.1586   -2.5122    0.0145 H   0  0  0  0  0  0  0  0  0  0  0  0
   -1.9015   -2.2657   -0.0033 H   0  0  0  0  0  0  0  0  0  0  0  0
   -3.3855    0.0647   -0.0276 H   0  0  0  0  0  0  0  0  0  0  0  0
  1  2  2  0  0  0  0
  1  6  1  0  0  0  0
  1 10  1  0  0  0  0
  2  3  1  0  0  0  0
  2 11  1  0  0  0  0
  3  4  2  0  0  0  0
  3 12  1  0  0  0  0
  4  5  1  0  0  0  0
  4  9  1  0  0  0  0
  5  6  2  0  0  0  0
  5  7  1  0  0  0  0
  6 13  1  0  0  0  0
  7  8  2  0  0  0  0
  7 14  1  0  0  0  0
  8  9  1  0  0  0  0
  8 15  1  0  0  0  0
M  END
$$$$
