string
__Jmol-16.05012318223D 1   1.00000     0.00000     0
Jmol version 16.1.11  2023-04-19 20:17 EXTRACT: ({0:4})
  5  4  0  0  0  0            999 V2000
    0.0000    0.0000    0.0000 C   0  0  1  0  0  0
   -0.6331    1.1813   -0.6735 Cl  0  0  0  0  0  0
   -0.5461   -1.2653   -0.5923 Br  0  0  0  0  0  0
    1.0807    0.0336   -0.1469 H   0  0  0  0  0  0
   -0.3064    0.0378    1.4679 F   0  0  0  0  0  0
  1  5  1
  1  2  1
  3  1  1
  4  1  1
M  END
