
 OpenBabel05012320553D

  5  4  0  0  1  0  0  0  0  0999 V2000
    0.9439    0.0049    0.0874 C   0  0  3  0  0  0  0  0  0  0  0  0
    0.3520    1.0446    1.3822 Cl  0  0  0  0  0  0  0  0  0  0  0  0
    0.2917    0.6323   -1.6248 Br  0  0  0  0  0  0  0  0  0  0  0  0
    2.3006   -0.0110    0.0903 F   0  0  0  0  0  0  0  0  0  0  0  0
    0.5760   -1.0135    0.2342 H   0  0  0  0  0  0  0  0  0  0  0  0
  1  2  1  0  0  0  0
  1  3  1  0  0  0  0
  1  4  1  0  0  0  0
  1  5  1  0  0  0  0
M  END
$$$$

 OpenBabel05012320553D

  5  4  0  0  1  0  0  0  0  0999 V2000
    1.0828    0.0466    0.0375 C   0  0  3  0  0  0  0  0  0  0  0  0
    0.4909    0.3287    1.6739 Cl  0  0  0  0  0  0  0  0  0  0  0  0
    0.4306    1.4250   -1.1563 Br  0  0  0  0  0  0  0  0  0  0  0  0
    2.4394    0.0312    0.0324 F   0  0  0  0  0  0  0  0  0  0  0  0
    0.7148   -0.9154   -0.3275 H   0  0  0  0  0  0  0  0  0  0  0  0
  1  2  1  0  0  0  0
  1  3  1  0  0  0  0
  1  4  1  0  0  0  0
  1  5  1  0  0  0  0
M  END
$$$$
