
 OpenBabel05012317563D

  5  4  0  0  1  0  0  0  0  0999 V2000
    0.9686    0.0403   -0.0605 H   0  0  0  0  0  0  0  0  0  0  0  0
    3.0487    0.0406   -0.0570 C   0  0  3  0  0  0  0  0  0  0  0  0
    3.6432   -1.4981   -0.6938 Cl  0  0  0  0  0  0  0  0  0  0  0  0
    3.7029    1.4957   -1.1662 Br  0  0  0  0  0  0  0  0  0  0  0  0
    3.4997    0.2052    1.2141 F   0  0  0  0  0  0  0  0  0  0  0  0
  1  2  1  0  0  0  0
  2  3  1  0  0  0  0
  2  4  1  0  0  0  0
  2  5  1  0  0  0  0
M  END
$$$$

 OpenBabel05012317563D

  5  4  0  0  1  0  0  0  0  0999 V2000
    0.9686    0.0403   -0.0605 H   0  0  0  0  0  0  0  0  0  0  0  0
    3.0487    0.0406   -0.0570 C   0  0  3  0  0  0  0  0  0  0  0  0
    3.6432   -1.4981   -0.6938 Br  0  0  0  0  0  0  0  0  0  0  0  0
    3.7029    1.4957   -1.1662 Cl  0  0  0  0  0  0  0  0  0  0  0  0
    3.4997    0.2052    1.2141 F   0  0  0  0  0  0  0  0  0  0  0  0
  1  2  1  0  0  0  0
  2  3  1  0  0  0  0
  2  4  1  0  0  0  0
  2  5  1  0  0  0  0
M  END
$$$$