
     RDKit          3D

  5  4  0  0  1  0  0  0  0  0999 V2000
    0.9686    0.0403   -0.0605 I   0  0  0  0  0  0  0  0  0  0  0  0
    3.0487    0.0406   -0.0570 C   0  0  1  0  0  0  0  0  0  0  0  0
    3.6432   -1.4981   -0.6938 Cl  0  0  0  0  0  0  0  0  0  0  0  0
    3.7029    1.4957   -1.1662 Br  0  0  0  0  0  0  0  0  0  0  0  0
    3.4997    0.2052    1.2141 F   0  0  0  0  0  0  0  0  0  0  0  0
  1  2  1  0
  2  3  1  0
  2  4  1  0
  2  5  1  1
M  CHG  4   1   1  3   2  4   3  5   4  
M  END
$$$$

     RDKit          3D

  5  4  0  0  1  0  0  0  0  0999 V2000
   -0.9686    0.0403   -0.0605 I   0  0  0  0  0  0  0  0  0  0  0  0
   -3.0487    0.0406   -0.0570 C   0  0  2  0  0  0  0  0  0  0  0  0
   -3.6432   -1.4981   -0.6938 Cl  0  0  0  0  0  0  0  0  0  0  0  0
   -3.7029    1.4957   -1.1662 Br  0  0  0  0  0  0  0  0  0  0  0  0
   -3.4997    0.2052    1.2141 F   0  0  0  0  0  0  0  0  0  0  0  0
  1  2  1  0
  2  3  1  0
  2  4  1  0
  2  5  1  6
M  CHG  4   1   1  3   2  4   3  5   4  
M  END
$$$$

     RDKit          3D

  5  4  0  0  1  0  0  0  0  0999 V2000
    0.9686   -0.0403   -0.0605 I   0  0  0  0  0  0  0  0  0  0  0  0
    3.0487   -0.0406   -0.0570 C   0  0  2  0  0  0  0  0  0  0  0  0
    3.6432    1.4981   -0.6938 Cl  0  0  0  0  0  0  0  0  0  0  0  0
    3.7029   -1.4957   -1.1662 Br  0  0  0  0  0  0  0  0  0  0  0  0
    3.4997   -0.2052    1.2141 F   0  0  0  0  0  0  0  0  0  0  0  0
  1  2  1  0
  2  3  1  0
  2  4  1  0
  2  5  1  6
M  CHG  4   1   1  3   2  4   3  5   4  
M  END
$$$$

     RDKit          3D

  5  4  0  0  1  0  0  0  0  0999 V2000
    0.9686    0.0403    0.0605 I   0  0  0  0  0  0  0  0  0  0  0  0
    3.0487    0.0406    0.0570 C   0  0  2  0  0  0  0  0  0  0  0  0
    3.6432   -1.4981    0.6938 Cl  0  0  0  0  0  0  0  0  0  0  0  0
    3.7029    1.4957    1.1662 Br  0  0  0  0  0  0  0  0  0  0  0  0
    3.4997    0.2052   -1.2141 F   0  0  0  0  0  0  0  0  0  0  0  0
  1  2  1  0
  2  3  1  0
  2  4  1  0
  2  5  1  1
M  CHG  4   1   1  3   2  4   3  5   4  
M  END
$$$$
