JUNGAD01
     RDKit          3D

 37 39  0  0  0  0  0  0  0  0999 V2000
   -6.9044   -1.0501   -2.0899 C   0  0  2  0  0  0  0  0  0  0  0  0
   -7.3207   -0.2127   -1.8304 H   0  0  0  0  0  0  0  0  0  0  0  0
   -7.3802   -1.7716   -1.6494 H   0  0  0  0  0  0  0  0  0  0  0  0
   -5.4971   -1.0539   -1.6619 N   0  0  2  0  0  0  0  0  0  0  0  0
   -5.4403   -1.2398   -0.7934 H   0  0  0  0  0  0  0  0  0  0  0  0
   -5.1304   -0.2553   -1.8038 H   0  0  0  0  0  0  0  0  0  0  0  0
   -4.4579   -2.5738   -2.8243 Co  0  0  0  0  0  6  0  0  0  0  0  0
   -7.0007   -1.2169   -3.5586 C   0  0  1  0  0  0  0  0  0  0  0  0
   -7.9341   -1.2751   -3.8181 H   0  0  0  0  0  0  0  0  0  0  0  0
   -6.6138   -0.4441   -3.9991 H   0  0  0  0  0  0  0  0  0  0  0  0
   -6.2938   -2.4338   -3.9866 N   0  0  1  0  0  0  0  0  0  0  0  0
   -6.1044   -2.3900   -4.8551 H   0  0  0  0  0  0  0  0  0  0  0  0
   -6.8020   -3.1506   -3.8447 H   0  0  0  0  0  0  0  0  0  0  0  0
   -4.5542   -5.4543   -2.0899 C   0  0  2  0  0  0  0  0  0  0  0  0
   -5.0713   -6.2335   -1.8304 H   0  0  0  0  0  0  0  0  0  0  0  0
   -3.6915   -5.5056   -1.6494 H   0  0  0  0  0  0  0  0  0  0  0  0
   -5.2546   -4.2337   -1.6619 N   0  0  1  0  0  0  0  0  0  0  0  0
   -5.1220   -4.0916   -0.7934 H   0  0  0  0  0  0  0  0  0  0  0  0
   -6.1296   -4.3154   -1.8038 H   0  0  0  0  0  0  0  0  0  0  0  0
   -4.3616   -5.4543   -3.5586 C   0  0  1  0  0  0  0  0  0  0  0  0
   -3.8445   -6.2335   -3.8181 H   0  0  0  0  0  0  0  0  0  0  0  0
   -5.2243   -5.5056   -3.9991 H   0  0  0  0  0  0  0  0  0  0  0  0
   -3.6612   -4.2337   -3.9866 N   0  0  1  0  0  0  0  0  0  0  0  0
   -3.7938   -4.0916   -4.8551 H   0  0  0  0  0  0  0  0  0  0  0  0
   -2.7862   -4.3154   -3.8447 H   0  0  0  0  0  0  0  0  0  0  0  0
   -1.9151   -1.2169   -2.0899 C   0  0  2  0  0  0  0  0  0  0  0  0
   -0.9817   -1.2751   -1.8304 H   0  0  0  0  0  0  0  0  0  0  0  0
   -2.3020   -0.4441   -1.6494 H   0  0  0  0  0  0  0  0  0  0  0  0
   -2.6220   -2.4338   -1.6619 N   0  0  1  0  0  0  0  0  0  0  0  0
   -2.8114   -2.3900   -0.7934 H   0  0  0  0  0  0  0  0  0  0  0  0
   -2.1138   -3.1506   -1.8038 H   0  0  0  0  0  0  0  0  0  0  0  0
   -2.0114   -1.0501   -3.5586 C   0  0  1  0  0  0  0  0  0  0  0  0
   -1.5951   -0.2127   -3.8181 H   0  0  0  0  0  0  0  0  0  0  0  0
   -1.5356   -1.7716   -3.9991 H   0  0  0  0  0  0  0  0  0  0  0  0
   -3.4187   -1.0539   -3.9866 N   0  0  1  0  0  0  0  0  0  0  0  0
   -3.4755   -1.2398   -4.8551 H   0  0  0  0  0  0  0  0  0  0  0  0
   -3.7854   -0.2553   -3.8447 H   0  0  0  0  0  0  0  0  0  0  0  0
  1  2  1  6
  3  1  1  0
  4  1  1  0
  4  5  1  1
  6  4  1  0
  7  4  1  0
  8  1  1  0
  8  9  1  1
 10  8  1  0
 11  7  1  0
 11 12  1  6
 13 11  1  0
 14 15  1  6
 16 14  1  0
 17  7  1  0
 17 18  1  1
 19 17  1  0
 20 14  1  0
 20 21  1  1
 22 20  1  0
 23  7  1  0
 23 24  1  6
 25 23  1  0
 26 27  1  6
 28 26  1  0
 29  7  1  0
 29 30  1  1
 31 29  1  0
 32 26  1  0
 32 33  1  1
 34 32  1  0
 35  7  1  0
 35 36  1  6
 37 35  1  0
  8 11  1  0
 14 17  1  0
 20 23  1  0
 26 29  1  0
 32 35  1  0
M  CHG  1   7   2
M  ISO  1   7  61
M  END
$$$$
JUNGAD01
     RDKit          3D

 37 39  0  0  0  0  0  0  0  0999 V2000
    6.9044   -1.0501   -2.0899 C   0  0  1  0  0  0  0  0  0  0  0  0
    7.3207   -0.2127   -1.8304 H   0  0  0  0  0  0  0  0  0  0  0  0
    7.3802   -1.7716   -1.6494 H   0  0  0  0  0  0  0  0  0  0  0  0
    5.4971   -1.0539   -1.6619 N   0  0  1  0  0  0  0  0  0  0  0  0
    5.4403   -1.2398   -0.7934 H   0  0  0  0  0  0  0  0  0  0  0  0
    5.1304   -0.2553   -1.8038 H   0  0  0  0  0  0  0  0  0  0  0  0
    4.4579   -2.5738   -2.8243 Co  0  0  0  0  0  6  0  0  0  0  0  0
    7.0007   -1.2169   -3.5586 C   0  0  2  0  0  0  0  0  0  0  0  0
    7.9341   -1.2751   -3.8181 H   0  0  0  0  0  0  0  0  0  0  0  0
    6.6138   -0.4441   -3.9991 H   0  0  0  0  0  0  0  0  0  0  0  0
    6.2938   -2.4338   -3.9866 N   0  0  2  0  0  0  0  0  0  0  0  0
    6.1044   -2.3900   -4.8551 H   0  0  0  0  0  0  0  0  0  0  0  0
    6.8020   -3.1506   -3.8447 H   0  0  0  0  0  0  0  0  0  0  0  0
    4.5542   -5.4543   -2.0899 C   0  0  1  0  0  0  0  0  0  0  0  0
    5.0713   -6.2335   -1.8304 H   0  0  0  0  0  0  0  0  0  0  0  0
    3.6915   -5.5056   -1.6494 H   0  0  0  0  0  0  0  0  0  0  0  0
    5.2546   -4.2337   -1.6619 N   0  0  2  0  0  0  0  0  0  0  0  0
    5.1220   -4.0916   -0.7934 H   0  0  0  0  0  0  0  0  0  0  0  0
    6.1296   -4.3154   -1.8038 H   0  0  0  0  0  0  0  0  0  0  0  0
    4.3616   -5.4543   -3.5586 C   0  0  2  0  0  0  0  0  0  0  0  0
    3.8445   -6.2335   -3.8181 H   0  0  0  0  0  0  0  0  0  0  0  0
    5.2243   -5.5056   -3.9991 H   0  0  0  0  0  0  0  0  0  0  0  0
    3.6612   -4.2337   -3.9866 N   0  0  2  0  0  0  0  0  0  0  0  0
    3.7938   -4.0916   -4.8551 H   0  0  0  0  0  0  0  0  0  0  0  0
    2.7862   -4.3154   -3.8447 H   0  0  0  0  0  0  0  0  0  0  0  0
    1.9151   -1.2169   -2.0899 C   0  0  1  0  0  0  0  0  0  0  0  0
    0.9817   -1.2751   -1.8304 H   0  0  0  0  0  0  0  0  0  0  0  0
    2.3020   -0.4441   -1.6494 H   0  0  0  0  0  0  0  0  0  0  0  0
    2.6220   -2.4338   -1.6619 N   0  0  2  0  0  0  0  0  0  0  0  0
    2.8114   -2.3900   -0.7934 H   0  0  0  0  0  0  0  0  0  0  0  0
    2.1138   -3.1506   -1.8038 H   0  0  0  0  0  0  0  0  0  0  0  0
    2.0114   -1.0501   -3.5586 C   0  0  2  0  0  0  0  0  0  0  0  0
    1.5951   -0.2127   -3.8181 H   0  0  0  0  0  0  0  0  0  0  0  0
    1.5356   -1.7716   -3.9991 H   0  0  0  0  0  0  0  0  0  0  0  0
    3.4187   -1.0539   -3.9866 N   0  0  2  0  0  0  0  0  0  0  0  0
    3.4755   -1.2398   -4.8551 H   0  0  0  0  0  0  0  0  0  0  0  0
    3.7854   -0.2553   -3.8447 H   0  0  0  0  0  0  0  0  0  0  0  0
  1  2  1  1
  3  1  1  0
  4  1  1  0
  4  5  1  6
  6  4  1  0
  7  4  1  0
  8  1  1  0
  8  9  1  6
 10  8  1  0
 11  7  1  0
 11 12  1  1
 13 11  1  0
 14 15  1  1
 16 14  1  0
 17  7  1  0
 17 18  1  6
 19 17  1  0
 20 14  1  0
 20 21  1  6
 22 20  1  0
 23  7  1  0
 23 24  1  1
 25 23  1  0
 26 27  1  1
 28 26  1  0
 29  7  1  0
 29 30  1  6
 31 29  1  0
 32 26  1  0
 32 33  1  6
 34 32  1  0
 35  7  1  0
 35 36  1  1
 37 35  1  0
  8 11  1  0
 14 17  1  0
 20 23  1  0
 26 29  1  0
 32 35  1  0
M  CHG  1   7   2
M  ISO  1   7  61
M  END
$$$$
JUNGAD01
     RDKit          3D

 37 39  0  0  0  0  0  0  0  0999 V2000
   -6.9044    1.0501   -2.0899 C   0  0  1  0  0  0  0  0  0  0  0  0
   -7.3207    0.2127   -1.8304 H   0  0  0  0  0  0  0  0  0  0  0  0
   -7.3802    1.7716   -1.6494 H   0  0  0  0  0  0  0  0  0  0  0  0
   -5.4971    1.0539   -1.6619 N   0  0  1  0  0  0  0  0  0  0  0  0
   -5.4403    1.2398   -0.7934 H   0  0  0  0  0  0  0  0  0  0  0  0
   -5.1304    0.2553   -1.8038 H   0  0  0  0  0  0  0  0  0  0  0  0
   -4.4579    2.5738   -2.8243 Co  0  0  0  0  0  6  0  0  0  0  0  0
   -7.0007    1.2169   -3.5586 C   0  0  2  0  0  0  0  0  0  0  0  0
   -7.9341    1.2751   -3.8181 H   0  0  0  0  0  0  0  0  0  0  0  0
   -6.6138    0.4441   -3.9991 H   0  0  0  0  0  0  0  0  0  0  0  0
   -6.2938    2.4338   -3.9866 N   0  0  2  0  0  0  0  0  0  0  0  0
   -6.1044    2.3900   -4.8551 H   0  0  0  0  0  0  0  0  0  0  0  0
   -6.8020    3.1506   -3.8447 H   0  0  0  0  0  0  0  0  0  0  0  0
   -4.5542    5.4543   -2.0899 C   0  0  1  0  0  0  0  0  0  0  0  0
   -5.0713    6.2335   -1.8304 H   0  0  0  0  0  0  0  0  0  0  0  0
   -3.6915    5.5056   -1.6494 H   0  0  0  0  0  0  0  0  0  0  0  0
   -5.2546    4.2337   -1.6619 N   0  0  2  0  0  0  0  0  0  0  0  0
   -5.1220    4.0916   -0.7934 H   0  0  0  0  0  0  0  0  0  0  0  0
   -6.1296    4.3154   -1.8038 H   0  0  0  0  0  0  0  0  0  0  0  0
   -4.3616    5.4543   -3.5586 C   0  0  2  0  0  0  0  0  0  0  0  0
   -3.8445    6.2335   -3.8181 H   0  0  0  0  0  0  0  0  0  0  0  0
   -5.2243    5.5056   -3.9991 H   0  0  0  0  0  0  0  0  0  0  0  0
   -3.6612    4.2337   -3.9866 N   0  0  2  0  0  0  0  0  0  0  0  0
   -3.7938    4.0916   -4.8551 H   0  0  0  0  0  0  0  0  0  0  0  0
   -2.7862    4.3154   -3.8447 H   0  0  0  0  0  0  0  0  0  0  0  0
   -1.9151    1.2169   -2.0899 C   0  0  1  0  0  0  0  0  0  0  0  0
   -0.9817    1.2751   -1.8304 H   0  0  0  0  0  0  0  0  0  0  0  0
   -2.3020    0.4441   -1.6494 H   0  0  0  0  0  0  0  0  0  0  0  0
   -2.6220    2.4338   -1.6619 N   0  0  2  0  0  0  0  0  0  0  0  0
   -2.8114    2.3900   -0.7934 H   0  0  0  0  0  0  0  0  0  0  0  0
   -2.1138    3.1506   -1.8038 H   0  0  0  0  0  0  0  0  0  0  0  0
   -2.0114    1.0501   -3.5586 C   0  0  2  0  0  0  0  0  0  0  0  0
   -1.5951    0.2127   -3.8181 H   0  0  0  0  0  0  0  0  0  0  0  0
   -1.5356    1.7716   -3.9991 H   0  0  0  0  0  0  0  0  0  0  0  0
   -3.4187    1.0539   -3.9866 N   0  0  2  0  0  0  0  0  0  0  0  0
   -3.4755    1.2398   -4.8551 H   0  0  0  0  0  0  0  0  0  0  0  0
   -3.7854    0.2553   -3.8447 H   0  0  0  0  0  0  0  0  0  0  0  0
  1  2  1  1
  3  1  1  0
  4  1  1  0
  4  5  1  6
  6  4  1  0
  7  4  1  0
  8  1  1  0
  8  9  1  6
 10  8  1  0
 11  7  1  0
 11 12  1  1
 13 11  1  0
 14 15  1  1
 16 14  1  0
 17  7  1  0
 17 18  1  6
 19 17  1  0
 20 14  1  0
 20 21  1  6
 22 20  1  0
 23  7  1  0
 23 24  1  1
 25 23  1  0
 26 27  1  1
 28 26  1  0
 29  7  1  0
 29 30  1  6
 31 29  1  0
 32 26  1  0
 32 33  1  6
 34 32  1  0
 35  7  1  0
 35 36  1  1
 37 35  1  0
  8 11  1  0
 14 17  1  0
 20 23  1  0
 26 29  1  0
 32 35  1  0
M  CHG  1   7   2
M  ISO  1   7  61
M  END
$$$$
JUNGAD01
     RDKit          3D

 37 39  0  0  0  0  0  0  0  0999 V2000
   -6.9044   -1.0501    2.0899 C   0  0  1  0  0  0  0  0  0  0  0  0
   -7.3207   -0.2127    1.8304 H   0  0  0  0  0  0  0  0  0  0  0  0
   -7.3802   -1.7716    1.6494 H   0  0  0  0  0  0  0  0  0  0  0  0
   -5.4971   -1.0539    1.6619 N   0  0  1  0  0  0  0  0  0  0  0  0
   -5.4403   -1.2398    0.7934 H   0  0  0  0  0  0  0  0  0  0  0  0
   -5.1304   -0.2553    1.8038 H   0  0  0  0  0  0  0  0  0  0  0  0
   -4.4579   -2.5738    2.8243 Co  0  0  0  0  0  6  0  0  0  0  0  0
   -7.0007   -1.2169    3.5586 C   0  0  2  0  0  0  0  0  0  0  0  0
   -7.9341   -1.2751    3.8181 H   0  0  0  0  0  0  0  0  0  0  0  0
   -6.6138   -0.4441    3.9991 H   0  0  0  0  0  0  0  0  0  0  0  0
   -6.2938   -2.4338    3.9866 N   0  0  2  0  0  0  0  0  0  0  0  0
   -6.1044   -2.3900    4.8551 H   0  0  0  0  0  0  0  0  0  0  0  0
   -6.8020   -3.1506    3.8447 H   0  0  0  0  0  0  0  0  0  0  0  0
   -4.5542   -5.4543    2.0899 C   0  0  1  0  0  0  0  0  0  0  0  0
   -5.0713   -6.2335    1.8304 H   0  0  0  0  0  0  0  0  0  0  0  0
   -3.6915   -5.5056    1.6494 H   0  0  0  0  0  0  0  0  0  0  0  0
   -5.2546   -4.2337    1.6619 N   0  0  2  0  0  0  0  0  0  0  0  0
   -5.1220   -4.0916    0.7934 H   0  0  0  0  0  0  0  0  0  0  0  0
   -6.1296   -4.3154    1.8038 H   0  0  0  0  0  0  0  0  0  0  0  0
   -4.3616   -5.4543    3.5586 C   0  0  2  0  0  0  0  0  0  0  0  0
   -3.8445   -6.2335    3.8181 H   0  0  0  0  0  0  0  0  0  0  0  0
   -5.2243   -5.5056    3.9991 H   0  0  0  0  0  0  0  0  0  0  0  0
   -3.6612   -4.2337    3.9866 N   0  0  2  0  0  0  0  0  0  0  0  0
   -3.7938   -4.0916    4.8551 H   0  0  0  0  0  0  0  0  0  0  0  0
   -2.7862   -4.3154    3.8447 H   0  0  0  0  0  0  0  0  0  0  0  0
   -1.9151   -1.2169    2.0899 C   0  0  1  0  0  0  0  0  0  0  0  0
   -0.9817   -1.2751    1.8304 H   0  0  0  0  0  0  0  0  0  0  0  0
   -2.3020   -0.4441    1.6494 H   0  0  0  0  0  0  0  0  0  0  0  0
   -2.6220   -2.4338    1.6619 N   0  0  2  0  0  0  0  0  0  0  0  0
   -2.8114   -2.3900    0.7934 H   0  0  0  0  0  0  0  0  0  0  0  0
   -2.1138   -3.1506    1.8038 H   0  0  0  0  0  0  0  0  0  0  0  0
   -2.0114   -1.0501    3.5586 C   0  0  2  0  0  0  0  0  0  0  0  0
   -1.5951   -0.2127    3.8181 H   0  0  0  0  0  0  0  0  0  0  0  0
   -1.5356   -1.7716    3.9991 H   0  0  0  0  0  0  0  0  0  0  0  0
   -3.4187   -1.0539    3.9866 N   0  0  2  0  0  0  0  0  0  0  0  0
   -3.4755   -1.2398    4.8551 H   0  0  0  0  0  0  0  0  0  0  0  0
   -3.7854   -0.2553    3.8447 H   0  0  0  0  0  0  0  0  0  0  0  0
  1  2  1  6
  3  1  1  0
  4  1  1  0
  4  5  1  1
  6  4  1  0
  7  4  1  0
  8  1  1  0
  8  9  1  1
 10  8  1  0
 11  7  1  0
 11 12  1  6
 13 11  1  0
 14 15  1  6
 16 14  1  0
 17  7  1  0
 17 18  1  1
 19 17  1  0
 20 14  1  0
 20 21  1  1
 22 20  1  0
 23  7  1  0
 23 24  1  6
 25 23  1  0
 26 27  1  6
 28 26  1  0
 29  7  1  0
 29 30  1  1
 31 29  1  0
 32 26  1  0
 32 33  1  1
 34 32  1  0
 35  7  1  0
 35 36  1  6
 37 35  1  0
  8 11  1  0
 14 17  1  0
 20 23  1  0
 26 29  1  0
 32 35  1  0
M  CHG  1   7   2
M  ISO  1   7  61
M  END
$$$$
