
     RDKit          3D

  5  4  0  0  1  0  0  0  0  0999 V2000
    1.0000    0.0000   -0.7071 I   0  0  0  0  0  0  0  0  0  0  0  0
    0.0000    0.0000   -0.0000 C   0  0  2  0  0  0  0  0  0  0  0  0
   -1.0000    0.0000   -0.7071 Cl  0  0  0  0  0  0  0  0  0  0  0  0
    0.0000    1.0000    0.7071 N   0  0  0  0  0  0  0  0  0  0  0  0
    0.0000   -1.0000    0.7071 F   0  0  0  0  0  0  0  0  0  0  0  0
  1  2  1  0
  2  3  1  0
  2  4  1  1
  2  5  1  0
M  END
$$$$

     RDKit          3D

  5  4  0  0  1  0  0  0  0  0999 V2000
   -1.0000    0.0000   -0.7071 I   0  0  0  0  0  0  0  0  0  0  0  0
   -0.0000    0.0000   -0.0000 C   0  0  1  0  0  0  0  0  0  0  0  0
    1.0000    0.0000   -0.7071 Cl  0  0  0  0  0  0  0  0  0  0  0  0
   -0.0000    1.0000    0.7071 N   0  0  0  0  0  0  0  0  0  0  0  0
   -0.0000   -1.0000    0.7071 F   0  0  0  0  0  0  0  0  0  0  0  0
  1  2  1  0
  2  3  1  0
  2  4  1  6
  2  5  1  0
M  END
$$$$

     RDKit          3D

  5  4  0  0  1  0  0  0  0  0999 V2000
    1.0000   -0.0000   -0.7071 I   0  0  0  0  0  0  0  0  0  0  0  0
    0.0000   -0.0000   -0.0000 C   0  0  1  0  0  0  0  0  0  0  0  0
   -1.0000   -0.0000   -0.7071 Cl  0  0  0  0  0  0  0  0  0  0  0  0
    0.0000   -1.0000    0.7071 N   0  0  0  0  0  0  0  0  0  0  0  0
    0.0000    1.0000    0.7071 F   0  0  0  0  0  0  0  0  0  0  0  0
  1  2  1  0
  2  3  1  0
  2  4  1  6
  2  5  1  0
M  END
$$$$

     RDKit          3D

  5  4  0  0  1  0  0  0  0  0999 V2000
    1.0000    0.0000    0.7071 I   0  0  0  0  0  0  0  0  0  0  0  0
    0.0000    0.0000    0.0000 C   0  0  1  0  0  0  0  0  0  0  0  0
   -1.0000    0.0000    0.7071 Cl  0  0  0  0  0  0  0  0  0  0  0  0
    0.0000    1.0000   -0.7071 N   0  0  0  0  0  0  0  0  0  0  0  0
    0.0000   -1.0000   -0.7071 F   0  0  0  0  0  0  0  0  0  0  0  0
  1  2  1  0
  2  3  1  0
  2  4  1  1
  2  5  1  0
M  END
$$$$
