
     RDKit          3D

  5  4  0  0  1  0  0  0  0  0999 V2000
   -0.6382   -0.3812    0.6251 I   0  0  0  0  0  0  0  0  0  0  0  0
   -2.1203   -1.1324    1.8766 C   0  0  1  0  0  0  0  0  0  0  0  0
   -2.8316   -2.5797    1.1514 F   0  0  0  0  0  0  0  0  0  0  0  0
   -1.3497   -1.5854    3.6019 Br  0  0  0  0  0  0  0  0  0  0  0  0
   -3.0876   -0.1937    2.0477 Cl  0  0  0  0  0  0  0  0  0  0  0  0
  1  2  1  0
  2  3  1  6
  2  4  1  0
  2  5  1  0
M  END
$$$$

     RDKit          3D

  5  4  0  0  1  0  0  0  0  0999 V2000
   -0.1747   -0.3420   -0.8922 I   0  0  0  0  0  0  0  0  0  0  0  0
   -0.4791   -0.9441   -2.8598 C   0  0  2  0  0  0  0  0  0  0  0  0
   -1.8781   -0.0957   -3.5302 F   0  0  0  0  0  0  0  0  0  0  0  0
   -0.7976   -2.8602   -2.9141 Br  0  0  0  0  0  0  0  0  0  0  0  0
    0.6220   -0.6494   -3.5994 Cl  0  0  0  0  0  0  0  0  0  0  0  0
  1  2  1  0
  2  3  1  6
  2  4  1  0
  2  5  1  0
M  END
$$$$

     RDKit          3D

  5  4  0  0  1  0  0  0  0  0999 V2000
   -0.5877   -0.7734   -0.0019 I   0  0  0  0  0  0  0  0  0  0  0  0
   -1.8083   -2.4512    0.1464 C   0  0  2  0  0  0  0  0  0  0  0  0
   -0.8223   -3.9143    0.0292 F   0  0  0  0  0  0  0  0  0  0  0  0
   -3.1162   -2.4357   -1.2905 Br  0  0  0  0  0  0  0  0  0  0  0  0
   -2.4528   -2.4383    1.3425 Cl  0  0  0  0  0  0  0  0  0  0  0  0
  1  2  1  0
  2  3  1  1
  2  4  1  0
  2  5  1  0
M  END
$$$$

     RDKit          3D

  5  4  0  0  1  0  0  0  0  0999 V2000
    0.3065   -0.8794    0.2760 I   0  0  0  0  0  0  0  0  0  0  0  0
    0.8154   -2.7915    0.9177 C   0  0  2  0  0  0  0  0  0  0  0  0
    1.0673   -2.7824    2.6679 F   0  0  0  0  0  0  0  0  0  0  0  0
    2.4475   -3.3641    0.0323 Br  0  0  0  0  0  0  0  0  0  0  0  0
   -0.1891   -3.6542    0.6128 Cl  0  0  0  0  0  0  0  0  0  0  0  0
  1  2  1  0
  2  3  1  1
  2  4  1  0
  2  5  1  0
M  END
$$$$
