
 OpenBabel09042316003D

 16 15  0  0  0  0  0  0  0  0999 V2000
    1.2338    0.0220    0.0726 C   0  0  0  0  0  0  0  0  0  0  0  0
    2.7353   -0.0280    0.0406 C   0  0  0  0  0  0  0  0  0  0  0  0
    3.3636   -0.9329   -0.5063 S   0  0  0  0  0  0  0  0  0  0  0  0
    3.3466    1.0285    0.6777 N   0  0  0  0  0  0  0  0  0  0  0  0
    4.7431    1.0702    0.7030 N   0  0  0  0  0  0  0  0  0  0  0  0
    5.3631    2.1213    1.3368 C   0  0  0  0  0  0  0  0  0  0  0  0
    4.7430    3.0291    1.8867 S   0  0  0  0  0  0  0  0  0  0  0  0
    6.8674    2.0727    1.3051 C   0  0  0  0  0  0  0  0  0  0  0  0
    0.8307   -0.8494   -0.4526 H   0  0  0  0  0  0  0  0  0  0  0  0
    0.8776    0.9270   -0.4269 H   0  0  0  0  0  0  0  0  0  0  0  0
    0.8793    0.0019    1.1067 H   0  0  0  0  0  0  0  0  0  0  0  0
    2.8523    1.7905    1.1391 H   0  0  0  0  0  0  0  0  0  0  0  0
    5.2316    0.3063    0.2393 H   0  0  0  0  0  0  0  0  0  0  0  0
    7.2361    1.1923    0.7717 H   0  0  0  0  0  0  0  0  0  0  0  0
    7.2456    2.0420    2.3306 H   0  0  0  0  0  0  0  0  0  0  0  0
    7.2434    2.9675    0.8015 H   0  0  0  0  0  0  0  0  0  0  0  0
  1  2  1  0  0  0  0
  1  9  1  0  0  0  0
  1 10  1  0  0  0  0
  1 11  1  0  0  0  0
  2  3  2  0  0  0  0
  2  4  1  0  0  0  0
  4  5  1  0  0  0  0
  4 12  1  0  0  0  0
  5  6  1  0  0  0  0
  5 13  1  0  0  0  0
  6  7  2  0  0  0  0
  6  8  1  0  0  0  0
  8 14  1  0  0  0  0
  8 15  1  0  0  0  0
  8 16  1  0  0  0  0
M  END
$$$$

 OpenBabel09042316003D

 16 15  0  0  0  0  0  0  0  0999 V2000
    1.2338    0.0220    0.0726 C   0  0  0  0  0  0  0  0  0  0  0  0
    2.7353   -0.0280    0.0406 C   0  0  0  0  0  0  0  0  0  0  0  0
    3.3636   -0.9329   -0.5063 O   0  0  0  0  0  0  0  0  0  0  0  0
    3.3466    1.0285    0.6777 N   0  0  0  0  0  0  0  0  0  0  0  0
    4.7431    1.0702    0.7030 N   0  0  0  0  0  0  0  0  0  0  0  0
    5.3631    2.1213    1.3368 C   0  0  0  0  0  0  0  0  0  0  0  0
    4.7430    3.0291    1.8867 O   0  0  0  0  0  0  0  0  0  0  0  0
    6.8674    2.0727    1.3051 C   0  0  0  0  0  0  0  0  0  0  0  0
    0.8307   -0.8494   -0.4526 H   0  0  0  0  0  0  0  0  0  0  0  0
    0.8776    0.9270   -0.4269 H   0  0  0  0  0  0  0  0  0  0  0  0
    0.8793    0.0019    1.1067 H   0  0  0  0  0  0  0  0  0  0  0  0
    2.8523    1.7905    1.1391 H   0  0  0  0  0  0  0  0  0  0  0  0
    5.2316    0.3063    0.2393 H   0  0  0  0  0  0  0  0  0  0  0  0
    7.2361    1.1923    0.7717 H   0  0  0  0  0  0  0  0  0  0  0  0
    7.2456    2.0420    2.3306 H   0  0  0  0  0  0  0  0  0  0  0  0
    7.2434    2.9675    0.8015 H   0  0  0  0  0  0  0  0  0  0  0  0
  1  2  1  0  0  0  0
  1  9  1  0  0  0  0
  1 10  1  0  0  0  0
  1 11  1  0  0  0  0
  2  3  2  0  0  0  0
  2  4  1  0  0  0  0
  4  5  1  0  0  0  0
  4 12  1  0  0  0  0
  5  6  1  0  0  0  0
  5 13  1  0  0  0  0
  6  7  2  0  0  0  0
  6  8  1  0  0  0  0
  8 14  1  0  0  0  0
  8 15  1  0  0  0  0
  8 16  1  0  0  0  0
M  END
$$$$

 OpenBabel09042316003D

 16 15  0  0  0  0  0  0  0  0999 V2000
    1.2338    0.0220    0.0726 C   0  0  0  0  0  0  0  0  0  0  0  0
    2.7353   -0.0280    0.0406 C   0  0  0  0  0  0  0  0  0  0  0  0
    3.3636   -0.9329   -0.5063 S   0  0  0  0  0  0  0  0  0  0  0  0
    3.3466    1.0285    0.6777 N   0  0  0  0  0  0  0  0  0  0  0  0
    4.7431    1.0702    0.7030 N   0  0  0  0  0  0  0  0  0  0  0  0
    5.3631    2.1213    1.3368 C   0  0  0  0  0  0  0  0  0  0  0  0
    4.7430    3.0291    1.8867 O   0  0  0  0  0  0  0  0  0  0  0  0
    6.8674    2.0727    1.3051 C   0  0  0  0  0  0  0  0  0  0  0  0
    0.8307   -0.8494   -0.4526 H   0  0  0  0  0  0  0  0  0  0  0  0
    0.8776    0.9270   -0.4269 H   0  0  0  0  0  0  0  0  0  0  0  0
    0.8793    0.0019    1.1067 H   0  0  0  0  0  0  0  0  0  0  0  0
    2.8523    1.7905    1.1391 H   0  0  0  0  0  0  0  0  0  0  0  0
    5.2316    0.3063    0.2393 H   0  0  0  0  0  0  0  0  0  0  0  0
    7.2361    1.1923    0.7717 H   0  0  0  0  0  0  0  0  0  0  0  0
    7.2456    2.0420    2.3306 H   0  0  0  0  0  0  0  0  0  0  0  0
    7.2434    2.9675    0.8015 H   0  0  0  0  0  0  0  0  0  0  0  0
  1  2  1  0  0  0  0
  1  9  1  0  0  0  0
  1 10  1  0  0  0  0
  1 11  1  0  0  0  0
  2  3  2  0  0  0  0
  2  4  1  0  0  0  0
  4  5  1  0  0  0  0
  4 12  1  0  0  0  0
  5  6  1  0  0  0  0
  5 13  1  0  0  0  0
  6  7  2  0  0  0  0
  6  8  1  0  0  0  0
  8 14  1  0  0  0  0
  8 15  1  0  0  0  0
  8 16  1  0  0  0  0
M  END
$$$$

 OpenBabel09042316003D

 16 15  0  0  0  0  0  0  0  0999 V2000
    1.2338    0.0220    0.0726 C   0  0  0  0  0  0  0  0  0  0  0  0
    2.7353   -0.0280    0.0406 C   0  0  0  0  0  0  0  0  0  0  0  0
    3.3636   -0.9329   -0.5063 O   0  0  0  0  0  0  0  0  0  0  0  0
    3.3466    1.0285    0.6777 N   0  0  0  0  0  0  0  0  0  0  0  0
    4.7431    1.0702    0.7030 N   0  0  0  0  0  0  0  0  0  0  0  0
    5.3631    2.1213    1.3368 C   0  0  0  0  0  0  0  0  0  0  0  0
    4.7430    3.0291    1.8867 S   0  0  0  0  0  0  0  0  0  0  0  0
    6.8674    2.0727    1.3051 C   0  0  0  0  0  0  0  0  0  0  0  0
    0.8307   -0.8494   -0.4526 H   0  0  0  0  0  0  0  0  0  0  0  0
    0.8776    0.9270   -0.4269 H   0  0  0  0  0  0  0  0  0  0  0  0
    0.8793    0.0019    1.1067 H   0  0  0  0  0  0  0  0  0  0  0  0
    2.8523    1.7905    1.1391 H   0  0  0  0  0  0  0  0  0  0  0  0
    5.2316    0.3063    0.2393 H   0  0  0  0  0  0  0  0  0  0  0  0
    7.2361    1.1923    0.7717 H   0  0  0  0  0  0  0  0  0  0  0  0
    7.2456    2.0420    2.3306 H   0  0  0  0  0  0  0  0  0  0  0  0
    7.2434    2.9675    0.8015 H   0  0  0  0  0  0  0  0  0  0  0  0
  1  2  1  0  0  0  0
  1  9  1  0  0  0  0
  1 10  1  0  0  0  0
  1 11  1  0  0  0  0
  2  3  2  0  0  0  0
  2  4  1  0  0  0  0
  4  5  1  0  0  0  0
  4 12  1  0  0  0  0
  5  6  1  0  0  0  0
  5 13  1  0  0  0  0
  6  7  2  0  0  0  0
  6  8  1  0  0  0  0
  8 14  1  0  0  0  0
  8 15  1  0  0  0  0
  8 16  1  0  0  0  0
M  END
$$$$
