
     RDKit          3D

  5  4  0  0  1  0  0  0  0  0999 V2000
    0.0000    0.0000    0.0000 C   0  0  0  0  0  0  0  0  0  0  0  0
    2.0000    0.0000    0.0000 Cl  0  0  0  0  0  0  0  0  0  0  0  0
   -2.0000    0.0000    0.0000 Cl  0  0  0  0  0  0  0  0  0  0  0  0
    0.0000    0.8660    1.2990 Cl  0  0  0  0  0  0  0  0  0  0  0  0
    0.0000    0.8660   -1.2990 Cl  0  0  0  0  0  0  0  0  0  0  0  0
  1  2  1  0
  1  3  1  0
  1  4  1  0
  1  5  1  0
M  ISO  4   2  38  3  40  4   42   5  44
M  END
$$$$

     RDKit          3D

  5  4  0  0  1  0  0  0  0  0999 V2000
   -0.0000    0.0000    0.0000 C   0  0  0  0  0  0  0  0  0  0  0  0
   -2.0000    0.0000    0.0000 Cl  0  0  0  0  0  0  0  0  0  0  0  0
    2.0000    0.0000    0.0000 Cl  0  0  0  0  0  0  0  0  0  0  0  0
   -0.0000    0.8660    1.2990 Cl  0  0  0  0  0  0  0  0  0  0  0  0
   -0.0000    0.8660   -1.2990 Cl  0  0  0  0  0  0  0  0  0  0  0  0
  1  2  1  0
  1  3  1  0
  1  4  1  0
  1  5  1  0
M  ISO  4   2  38  3  40  4   42   5  44
M  END
$$$$

     RDKit          3D

  5  4  0  0  1  0  0  0  0  0999 V2000
    0.0000   -0.0000    0.0000 C   0  0  0  0  0  0  0  0  0  0  0  0
    2.0000   -0.0000    0.0000 Cl  0  0  0  0  0  0  0  0  0  0  0  0
   -2.0000   -0.0000    0.0000 Cl  0  0  0  0  0  0  0  0  0  0  0  0
    0.0000   -0.8660    1.2990 Cl  0  0  0  0  0  0  0  0  0  0  0  0
    0.0000   -0.8660   -1.2990 Cl  0  0  0  0  0  0  0  0  0  0  0  0
  1  2  1  0
  1  3  1  0
  1  4  1  0
  1  5  1  0
M  ISO  4   2  38  3  40  4   42   5  44
M  END
$$$$

     RDKit          3D

  5  4  0  0  1  0  0  0  0  0999 V2000
    0.0000    0.0000   -0.0000 C   0  0  0  0  0  0  0  0  0  0  0  0
    2.0000    0.0000   -0.0000 Cl  0  0  0  0  0  0  0  0  0  0  0  0
   -2.0000    0.0000   -0.0000 Cl  0  0  0  0  0  0  0  0  0  0  0  0
    0.0000    0.8660   -1.2990 Cl  0  0  0  0  0  0  0  0  0  0  0  0
    0.0000    0.8660    1.2990 Cl  0  0  0  0  0  0  0  0  0  0  0  0
  1  2  1  0
  1  3  1  0
  1  4  1  0
  1  5  1  0
M  ISO  4   2  38  3  40  4   42   5  44
M  END
$$$$
