Coordinates from ORCA-job input
 OpenBabel01092415093D

 30 32  0  0  1  0  0  0  0  0999 V2000
    0.1654    1.5164    0.3082 C   0  0  0  0  0  0  0  0  0  0  0  0
   -0.4535    0.2539    0.1550 C   0  0  0  0  0  0  0  0  0  0  0  0
   -1.8465    0.1342    0.0700 C   0  0  0  0  0  0  0  0  0  0  0  0
   -2.6315    1.3001    0.1460 C   0  0  0  0  0  0  0  0  0  0  0  0
   -2.0307    2.5585    0.2966 C   0  0  0  0  0  0  0  0  0  0  0  0
   -0.6250    2.6646    0.3715 C   0  0  0  0  0  0  0  0  0  0  0  0
    0.1137    4.2392    0.5457 Cl  0  0  0  0  0  0  0  0  0  0  0  0
    0.5113   -0.7571    0.1177 N   0  0  0  0  0  0  0  0  0  0  0  0
    1.7869   -0.2475    0.3072 C   0  0  0  0  0  0  0  0  0  0  0  0
    2.8180   -0.8653    0.5052 O   0  0  0  0  0  0  0  0  0  0  0  0
    1.6677    1.3102    0.2972 C   0  0  2  0  0  0  0  0  0  0  0  0
    2.2879    1.8142    1.4620 O   0  0  0  0  0  0  0  0  0  0  0  0
    2.2664    1.8836   -1.0262 C   0  0  0  0  0  0  0  0  0  0  0  0
    3.6999    1.4407   -1.3303 C   0  0  0  0  0  0  0  0  0  0  0  0
    2.1832    2.9868   -0.9548 H   0  0  0  0  0  0  0  0  0  0  0  0
    1.6506    1.5361   -1.8779 H   0  0  0  0  0  0  0  0  0  0  0  0
    3.9354    0.5914   -2.1843 O   0  0  0  0  0  0  0  0  0  0  0  0
    4.7658    2.0982   -0.5589 C   0  0  0  0  0  0  0  0  0  0  0  0
    4.7749    3.1251    0.3814 C   0  0  0  0  0  0  0  0  0  0  0  0
    6.1407    3.3304    0.7455 C   0  0  0  0  0  0  0  0  0  0  0  0
    6.8683    2.4212    0.0002 C   0  0  0  0  0  0  0  0  0  0  0  0
    6.0553    1.6797   -0.7868 O   0  0  0  0  0  0  0  0  0  0  0  0
   -3.7253    1.2119    0.0853 H   0  0  0  0  0  0  0  0  0  0  0  0
    3.8928    3.6442    0.7695 H   0  0  0  0  0  0  0  0  0  0  0  0
    6.5395    4.0562    1.4627 H   0  0  0  0  0  0  0  0  0  0  0  0
    7.9380    2.1960   -0.0700 H   0  0  0  0  0  0  0  0  0  0  0  0
   -2.6468    3.4657    0.3571 H   0  0  0  0  0  0  0  0  0  0  0  0
    0.2858   -1.7545    0.1148 H   0  0  0  0  0  0  0  0  0  0  0  0
    3.1247    1.3070    1.5529 H   0  0  0  0  0  0  0  0  0  0  0  0
   -2.5677   -1.4483   -0.1106 Cl  0  0  0  0  0  0  0  0  0  0  0  0
  1  6  1  0  0  0  0
  2  1  2  0  0  0  0
  3  4  2  0  0  0  0
  3  2  1  0  0  0  0
  4  5  1  0  0  0  0
  5 27  1  0  0  0  0
  5  6  2  0  0  0  0
  6  7  1  0  0  0  0
  8  2  1  0  0  0  0
  8  9  1  0  0  0  0
  9 10  2  0  0  0  0
 11  9  1  0  0  0  0
 11  1  1  0  0  0  0
 11 12  1  1  0  0  0
 12 29  1  0  0  0  0
 13 15  1  0  0  0  0
 13 11  1  0  0  0  0
 14 13  1  0  0  0  0
 14 18  1  0  0  0  0
 16 13  1  0  0  0  0
 17 14  2  0  0  0  0
 18 19  2  0  0  0  0
 19 20  1  0  0  0  0
 19 24  1  0  0  0  0
 20 25  1  0  0  0  0
 21 20  2  0  0  0  0
 22 18  1  0  0  0  0
 22 21  1  0  0  0  0
 23  4  1  0  0  0  0
 26 21  1  0  0  0  0
 28  8  1  0  0  0  0
 30  3  1  0  0  0  0
M  END
$$$$
