 
     RDKit          3D

 20 22  0  0  0  0            999 V2000
   -1.6675    1.7688    0.0256 C   0  0  0  0  0  0  0  0  0  0  0  0
   -2.8564    1.1576    0.0308 C   0  0  0  0  0  0  0  0  0  0  0  0
   -2.9935   -0.3085    0.0059 C   0  0  0  0  0  0  0  0  0  0  0  0
   -4.1010   -0.8325   -0.0064 O   0  5  0  0  0  0  0  0  0  0  0  0
   -1.8193   -1.0470    0.0006 O   0  0  0  0  0  0  0  0  0  0  0  0
   -0.5538   -0.4197   -0.0013 C   0  0  0  0  0  0  0  0  0  0  0  0
    0.5565   -1.2656   -0.0042 C   0  0  0  0  0  0  0  0  0  0  0  0
    1.7916   -0.6265   -0.0048 C   0  0  0  0  0  0  0  0  0  0  0  0
    1.9607    0.7549   -0.0117 C   0  0  0  0  0  0  0  0  0  0  0  0
    3.3651    0.9688   -0.0121 C   0  0  0  0  0  0  0  0  0  0  0  0
    3.9490   -0.2773    0.0016 C   0  0  0  0  0  0  0  0  0  0  0  0
    3.0014   -1.2501    0.0029 O   0  0  0  0  0  0  0  0  0  0  0  0
    0.8175    1.5791   -0.0131 C   0  0  0  0  0  0  0  0  0  0  0  0
   -0.4492    0.9742   -0.0005 C   0  0  0  0  0  0  0  0  0  0  0  0
   -1.5955    2.8513    0.0480 H   0  0  0  0  0  0  0  0  0  0  0  0
   -3.7853    1.7144    0.0543 H   0  0  0  0  0  0  0  0  0  0  0  0
    0.4703   -2.3443   -0.0016 H   0  0  0  0  0  0  0  0  0  0  0  0
    3.8881    1.9142   -0.0165 H   0  0  0  0  0  0  0  0  0  0  0  0
    4.9726   -0.6257    0.0117 H   0  0  0  0  0  0  0  0  0  0  0  0
    0.9258    2.6595   -0.0183 H   0  0  0  0  0  0  0  0  0  0  0  0
  1  2  2  0  0  0  0
  1 14  1  0  0  0  0
  1 15  1  0  0  0  0
  2  3  1  0  0  0  0
  2 16  1  0  0  0  0
  3  5  1  0  0  0  0
  5  6  1  0  0  0  0
  6  7  2  0  0  0  0
  6 14  1  0  0  0  0
  7  8  1  0  0  0  0
  7 17  1  0  0  0  0
  8  9  2  0  0  0  0
  8 12  1  0  0  0  0
  9 10  1  0  0  0  0
  9 13  1  0  0  0  0
 10 11  2  0  0  0  0
 10 18  1  0  0  0  0
 11 12  1  0  0  0  0
 11 19  1  0  0  0  0
 13 14  2  0  0  0  0
 13 20  1  0  0  0  0
  3  4  1  0  0  0  0
M  CHG  1   4  -1
M  ISO  1  12  17
M  END
$$$$
