Coordinates from ORCA-job input
 OpenBabel01092415053D

 33 35  0  0  1  0  0  0  0  0999 V2000
    0.1141    1.5813    0.2629 C   0  0  0  0  0  0  0  0  0  0  0  0
   -0.5448    0.3407    0.1019 C   0  0  0  0  0  0  0  0  0  0  0  0
   -1.9404    0.2200   -0.0155 C   0  0  0  0  0  0  0  0  0  0  0  0
   -2.6676    1.4299    0.0453 C   0  0  0  0  0  0  0  0  0  0  0  0
   -2.0483    2.6794    0.2037 C   0  0  0  0  0  0  0  0  0  0  0  0
   -0.6445    2.7514    0.3055 C   0  0  0  0  0  0  0  0  0  0  0  0
   -2.6015   -1.1238   -0.1856 C   0  0  0  0  0  0  0  0  0  0  0  0
   -2.2331   -1.6495   -1.0929 H   0  0  0  0  0  0  0  0  0  0  0  0
   -3.6990   -1.0217   -0.2823 H   0  0  0  0  0  0  0  0  0  0  0  0
   -2.4059   -1.7909    0.6822 H   0  0  0  0  0  0  0  0  0  0  0  0
    0.1351    4.3088    0.4859 Cl  0  0  0  0  0  0  0  0  0  0  0  0
    0.4084   -0.6952    0.0844 N   0  0  0  0  0  0  0  0  0  0  0  0
    1.6904   -0.2169    0.2952 C   0  0  0  0  0  0  0  0  0  0  0  0
    2.7028   -0.8606    0.5151 O   0  0  0  0  0  0  0  0  0  0  0  0
    1.6097    1.3405    0.2789 C   0  0  2  0  0  0  0  0  0  0  0  0
    2.2258    1.8314    1.4526 O   0  0  0  0  0  0  0  0  0  0  0  0
    2.2455    1.8938   -1.0364 C   0  0  0  0  0  0  0  0  0  0  0  0
    3.6726    1.4196   -1.3157 C   0  0  0  0  0  0  0  0  0  0  0  0
    2.1847    2.9989   -0.9710 H   0  0  0  0  0  0  0  0  0  0  0  0
    1.6356    1.5557   -1.8961 H   0  0  0  0  0  0  0  0  0  0  0  0
    3.9059    0.5646   -2.1652 O   0  0  0  0  0  0  0  0  0  0  0  0
    4.7398    2.0554   -0.5274 C   0  0  0  0  0  0  0  0  0  0  0  0
    4.7551    3.0827    0.4122 C   0  0  0  0  0  0  0  0  0  0  0  0
    6.1188    3.2595    0.7986 C   0  0  0  0  0  0  0  0  0  0  0  0
    6.8394    2.3350    0.0657 C   0  0  0  0  0  0  0  0  0  0  0  0
    6.0241    1.6099   -0.7342 O   0  0  0  0  0  0  0  0  0  0  0  0
   -3.7651    1.3884   -0.0370 H   0  0  0  0  0  0  0  0  0  0  0  0
    3.8768    3.6190    0.7853 H   0  0  0  0  0  0  0  0  0  0  0  0
    6.5209    3.9772    1.5221 H   0  0  0  0  0  0  0  0  0  0  0  0
    7.9051    2.0874    0.0129 H   0  0  0  0  0  0  0  0  0  0  0  0
   -2.6429    3.6018    0.2481 H   0  0  0  0  0  0  0  0  0  0  0  0
    0.1868   -1.6921    0.0976 H   0  0  0  0  0  0  0  0  0  0  0  0
    3.0470    1.3018    1.5561 H   0  0  0  0  0  0  0  0  0  0  0  0
  1 15  1  0  0  0  0
  1  6  1  0  0  0  0
  2  1  2  0  0  0  0
  3  4  2  0  0  0  0
  3  2  1  0  0  0  0
  4  5  1  0  0  0  0
  5 31  1  0  0  0  0
  5  6  2  0  0  0  0
  6 11  1  0  0  0  0
  7  3  1  0  0  0  0
  7 10  1  0  0  0  0
  8  7  1  0  0  0  0
  9  7  1  0  0  0  0
 12 32  1  0  0  0  0
 12  2  1  0  0  0  0
 12 13  1  0  0  0  0
 13 14  2  0  0  0  0
 15 13  1  0  0  0  0
 15 16  1  1  0  0  0
 16 33  1  0  0  0  0
 17 19  1  0  0  0  0
 17 15  1  0  0  0  0
 18 17  1  0  0  0  0
 18 22  1  0  0  0  0
 20 17  1  0  0  0  0
 21 18  2  0  0  0  0
 22 23  2  0  0  0  0
 23 28  1  0  0  0  0
 23 24  1  0  0  0  0
 24 29  1  0  0  0  0
 25 24  2  0  0  0  0
 26 22  1  0  0  0  0
 26 25  1  0  0  0  0
 27  4  1  0  0  0  0
 30 25  1  0  0  0  0
M  END
$$$$
