Coordinates from ORCA-job input
 OpenBabel01092416083D

 30 32  0  0  1  0  0  0  0  0999 V2000
    0.1649    1.5057    0.3113 C   0  0  0  0  0  0  0  0  0  0  0  0
   -0.4630    0.2446    0.1625 C   0  0  0  0  0  0  0  0  0  0  0  0
   -1.8529    0.1122    0.0713 C   0  0  0  0  0  0  0  0  0  0  0  0
   -2.6244    1.2892    0.1410 C   0  0  0  0  0  0  0  0  0  0  0  0
   -2.0312    2.5524    0.2884 C   0  0  0  0  0  0  0  0  0  0  0  0
   -0.6257    2.6533    0.3657 C   0  0  0  0  0  0  0  0  0  0  0  0
    0.1169    4.2294    0.5337 Cl  0  0  0  0  0  0  0  0  0  0  0  0
    0.5174   -0.7622    0.1336 N   0  0  0  0  0  0  0  0  0  0  0  0
    1.7889   -0.2480    0.3243 C   0  0  0  0  0  0  0  0  0  0  0  0
    2.8220   -0.8622    0.5313 O   0  0  0  0  0  0  0  0  0  0  0  0
    1.6663    1.3067    0.3033 C   0  0  2  0  0  0  0  0  0  0  0  0
    2.2885    1.8192    1.4644 O   0  0  0  0  0  0  0  0  0  0  0  0
    2.2660    1.8718   -1.0240 C   0  0  0  0  0  0  0  0  0  0  0  0
    3.6997    1.4304   -1.3251 C   0  0  0  0  0  0  0  0  0  0  0  0
    2.1805    2.9753   -0.9594 H   0  0  0  0  0  0  0  0  0  0  0  0
    1.6505    1.5182   -1.8734 H   0  0  0  0  0  0  0  0  0  0  0  0
    3.9384    0.5761   -2.1736 O   0  0  0  0  0  0  0  0  0  0  0  0
    4.7647    2.0965   -0.5591 C   0  0  0  0  0  0  0  0  0  0  0  0
    4.7708    3.1292    0.3748 C   0  0  0  0  0  0  0  0  0  0  0  0
    6.1363    3.3422    0.7358 C   0  0  0  0  0  0  0  0  0  0  0  0
    6.8667    2.4313   -0.0048 C   0  0  0  0  0  0  0  0  0  0  0  0
    6.0556    1.6817   -0.7861 O   0  0  0  0  0  0  0  0  0  0  0  0
   -3.7207    1.2184    0.0779 H   0  0  0  0  0  0  0  0  0  0  0  0
    3.8866    3.6459    0.7611 H   0  0  0  0  0  0  0  0  0  0  0  0
    6.5332    4.0739    1.4480 H   0  0  0  0  0  0  0  0  0  0  0  0
    7.9372    2.2102   -0.0748 H   0  0  0  0  0  0  0  0  0  0  0  0
   -2.6423    3.4634    0.3435 H   0  0  0  0  0  0  0  0  0  0  0  0
    0.3218   -1.7649    0.1463 H   0  0  0  0  0  0  0  0  0  0  0  0
    3.1221    1.3077    1.5597 H   0  0  0  0  0  0  0  0  0  0  0  0
   -2.3287   -0.8720   -0.0449 H   0  0  0  0  0  0  0  0  0  0  0  0
  1  6  1  0  0  0  0
  2  1  2  0  0  0  0
  3  4  2  0  0  0  0
  3  2  1  0  0  0  0
  4  5  1  0  0  0  0
  5 27  1  0  0  0  0
  5  6  2  0  0  0  0
  6  7  1  0  0  0  0
  8 28  1  0  0  0  0
  8  2  1  0  0  0  0
  8  9  1  0  0  0  0
  9 10  2  0  0  0  0
 11  1  1  0  0  0  0
 11  9  1  0  0  0  0
 11 12  1  1  0  0  0
 12 29  1  0  0  0  0
 13 15  1  0  0  0  0
 13 11  1  0  0  0  0
 14 13  1  0  0  0  0
 14 18  1  0  0  0  0
 16 13  1  0  0  0  0
 17 14  2  0  0  0  0
 18 19  2  0  0  0  0
 19 20  1  0  0  0  0
 19 24  1  0  0  0  0
 20 25  1  0  0  0  0
 21 20  2  0  0  0  0
 22 18  1  0  0  0  0
 22 21  1  0  0  0  0
 23  4  1  0  0  0  0
 26 21  1  0  0  0  0
 30  3  1  0  0  0  0
M  END
$$$$
