30

C          0.14830        1.26750        0.34860
C         -0.64270        0.18840        0.00920
C         -2.02770        0.28980       -0.10450
C         -2.62310        1.53540        0.14170
C         -1.83200        2.64300        0.50090
C         -0.43520        2.51940        0.61060
Cl         0.51620        3.91790        1.08620
N          0.12490       -0.96480       -0.17420
C          1.41240       -0.63880        0.04770
O          2.31120       -1.46290       -0.01080
C          1.59910        0.83680        0.38120
O          2.10870        1.01920        1.67880
C          2.43230        1.61060       -0.67580
C          3.90000        1.23610       -0.70930
H          2.34130        2.68790       -0.46320
H          2.00010        1.44760       -1.68740
O          4.22010        0.10160       -1.02580
C          4.97730        2.20460       -0.40170
C          4.84370        3.53270       -0.02990
C          6.12410        4.00590        0.14280
C          6.96490        2.94880       -0.12970
O          6.25400        1.89130       -0.45010
H         -3.69700        1.64390        0.06230
H          3.93790        4.10630        0.10510
H          6.41230        5.00700        0.43420
H          8.04560        2.97050       -0.09030
H         -2.30780        3.59540        0.69710
H         -0.22950       -1.90240       -0.41420
H          2.95600        0.50630        1.74470
H         -2.62910       -0.56940       -0.37160
