BAKKEH
     RDKit          3D

 79 83  0  0  0  0  0  0  0  0999 V2000
   -5.6923   -2.2596    2.5152 C   0  0  0  0  0  0  0  0  0  0  0  0
   -6.1313   -2.1458    1.6453 H   0  0  0  0  0  0  0  0  0  0  0  0
   -6.2028   -1.7815    3.2024 H   0  0  0  0  0  0  0  0  0  0  0  0
   -4.7835   -1.8963    2.4718 H   0  0  0  0  0  0  0  0  0  0  0  0
   -6.7171   -6.7974    3.5048 C   0  0  0  0  0  0  0  0  0  0  0  0
   -6.8742   -7.4179    2.7637 H   0  0  0  0  0  0  0  0  0  0  0  0
   -6.7833   -7.2807    4.3551 H   0  0  0  0  0  0  0  0  0  0  0  0
   -7.3883   -6.0831    3.4808 H   0  0  0  0  0  0  0  0  0  0  0  0
   -4.0740   -7.5981    7.0425 C   0  0  0  0  0  0  0  0  0  0  0  0
   -4.2005   -8.5682    7.0844 H   0  0  0  0  0  0  0  0  0  0  0  0
   -3.1168   -7.3905    7.0859 H   0  0  0  0  0  0  0  0  0  0  0  0
   -4.5334   -7.1759    7.7985 H   0  0  0  0  0  0  0  0  0  0  0  0
   -4.4844   -3.0448    4.9151 C   0  0  0  0  0  0  0  0  0  0  0  0
   -4.4729   -2.1208    4.6965 H   0  0  0  0  0  0  0  0  0  0  0  0
   -5.0412   -3.9715    4.0497 C   0  0  0  0  0  0  0  0  0  0  0  0
   -5.0336   -5.3258    4.3536 C   0  0  0  0  0  0  0  0  0  0  0  0
   -4.5332   -5.7599    5.5768 C   0  0  0  0  0  0  0  0  0  0  0  0
   -3.9800   -4.8500    6.4736 C   0  0  0  0  0  0  0  0  0  0  0  0
   -3.6378   -5.1424    7.3105 H   0  0  0  0  0  0  0  0  0  0  0  0
   -3.9386   -3.5001    6.1188 C   0  0  0  0  0  0  0  0  0  0  0  0
   -3.3034   -2.5764    7.0320 C   0  0  0  0  0  0  0  0  0  0  0  0
   -2.3937   -0.7415    7.6533 C   0  0  0  0  0  0  0  0  0  0  0  0
   -1.8528    0.6068    7.5695 C   0  0  0  0  0  0  0  0  0  0  0  0
   -1.9965    1.3558    6.3972 C   0  0  0  0  0  0  0  0  0  0  0  0
   -2.4701    0.9856    5.6606 H   0  0  0  0  0  0  0  0  0  0  0  0
   -1.4576    2.6341    6.2909 C   0  0  0  0  0  0  0  0  0  0  0  0
   -1.5364    3.3996    4.9690 C   0  0  1  0  0  0  0  0  0  0  0  0
   -2.7654    3.0036    4.1381 C   0  0  0  0  0  0  0  0  0  0  0  0
   -2.7746    3.5181    3.3027 H   0  0  0  0  0  0  0  0  0  0  0  0
   -2.7256    2.0460    3.9315 H   0  0  0  0  0  0  0  0  0  0  0  0
   -3.5798    3.1937    4.6486 H   0  0  0  0  0  0  0  0  0  0  0  0
   -1.6180    4.9238    5.2160 C   0  0  0  0  0  0  0  0  0  0  0  0
   -1.6679    5.3919    4.3566 H   0  0  0  0  0  0  0  0  0  0  0  0
   -2.4184    5.1274    5.7445 H   0  0  0  0  0  0  0  0  0  0  0  0
   -0.8207    5.2197    5.7026 H   0  0  0  0  0  0  0  0  0  0  0  0
   -0.2715    3.0864    4.1500 C   0  0  0  0  0  0  0  0  0  0  0  0
   -0.3058    3.5705    3.2982 H   0  0  0  0  0  0  0  0  0  0  0  0
    0.5215    3.3659    4.6516 H   0  0  0  0  0  0  0  0  0  0  0  0
   -0.2244    2.1233    3.9764 H   0  0  0  0  0  0  0  0  0  0  0  0
   -0.7748    3.1236    7.3868 C   0  0  0  0  0  0  0  0  0  0  0  0
   -0.4030    3.9972    7.3344 H   0  0  0  0  0  0  0  0  0  0  0  0
   -0.6045    2.3965    8.5726 C   0  0  0  0  0  0  0  0  0  0  0  0
   -1.1544    1.1230    8.6774 C   0  0  0  0  0  0  0  0  0  0  0  0
    0.1227    3.0383    9.6610 C   0  0  0  0  0  0  0  0  0  0  0  0
    1.1637    3.2317   11.5369 C   0  0  0  0  0  0  0  0  0  0  0  0
    1.7013    2.7671   12.8064 C   0  0  0  0  0  0  0  0  0  0  0  0
    2.4439    3.6428   13.5849 C   0  0  0  0  0  0  0  0  0  0  0  0
    2.6228    4.5286   13.2915 H   0  0  0  0  0  0  0  0  0  0  0  0
    2.9212    3.1805   14.8201 C   0  0  0  0  0  0  0  0  0  0  0  0
    2.6633    1.8845   15.2527 C   0  0  0  0  0  0  0  0  0  0  0  0
    1.9341    1.0305   14.4278 C   0  0  0  0  0  0  0  0  0  0  0  0
    1.4463    1.4659   13.2077 C   0  0  0  0  0  0  0  0  0  0  0  0
    0.9445    0.8808   12.6522 H   0  0  0  0  0  0  0  0  0  0  0  0
    1.1274   -1.1877   14.0341 C   0  0  0  0  0  0  0  0  0  0  0  0
    1.0241   -2.0460   14.4937 H   0  0  0  0  0  0  0  0  0  0  0  0
    0.2477   -0.8633   13.7496 H   0  0  0  0  0  0  0  0  0  0  0  0
    1.7035   -1.3024   13.2496 H   0  0  0  0  0  0  0  0  0  0  0  0
    2.2122    1.5315   17.5269 C   0  0  0  0  0  0  0  0  0  0  0  0
    2.6154    1.2026   18.3563 H   0  0  0  0  0  0  0  0  0  0  0  0
    1.9453    2.4677   17.6422 H   0  0  0  0  0  0  0  0  0  0  0  0
    1.4240    0.9906   17.3083 H   0  0  0  0  0  0  0  0  0  0  0  0
    3.8163    5.3300   15.3680 C   0  0  0  0  0  0  0  0  0  0  0  0
    4.3690    5.7662   16.0507 H   0  0  0  0  0  0  0  0  0  0  0  0
    4.2459    5.4219   14.4922 H   0  0  0  0  0  0  0  0  0  0  0  0
    2.9331    5.7537   15.3441 H   0  0  0  0  0  0  0  0  0  0  0  0
   -2.9147   -2.7563    8.2612 N   0  0  0  0  0  0  0  0  0  0  0  0
   -2.3218   -1.5455    8.6714 N   0  0  0  0  0  0  0  0  0  0  0  0
    0.4596    4.2846    9.7658 N   0  0  0  0  0  0  0  0  0  0  0  0
    1.1543    4.4081   11.0039 N   0  0  0  0  0  0  0  0  0  0  0  0
   -5.6360   -3.6516    2.8427 O   0  0  0  0  0  0  0  0  0  0  0  0
   -5.4290   -6.2348    3.3828 O   0  0  0  0  0  0  0  0  0  0  0  0
   -4.6124   -7.1013    5.8232 O   0  0  0  0  0  0  0  0  0  0  0  0
   -3.0016   -1.3067    6.5710 O   0  0  0  0  0  0  0  0  0  0  0  0
   -0.9944    0.4082    9.8191 O   0  0  0  0  0  0  0  0  0  0  0  0
   -1.4030   -0.3219    9.7508 H   0  0  0  0  0  0  0  0  0  0  0  0
    0.5337    2.2982   10.7417 O   0  0  0  0  0  0  0  0  0  0  0  0
    1.7233   -0.2333   14.9303 O   0  0  0  0  0  0  0  0  0  0  0  0
    3.1703    1.4344   16.4566 O   0  0  0  0  0  0  0  0  0  0  0  0
    3.6726    3.9370   15.6851 O   0  0  0  0  0  0  0  0  0  0  0  0
  1  2  1  0
  3  1  1  0
  4  1  1  0
  5  6  1  0
  7  5  1  0
  8  5  1  0
  9 10  1  0
 11  9  1  0
 12  9  1  0
 13 14  1  0
 15 13  2  0
 16 15  1  0
 17 16  2  0
 18 17  1  0
 19 18  1  0
 20 13  1  0
 21 20  1  0
 22 23  1  0
 23 24  2  0
 24 25  1  0
 26 24  1  0
 27 26  1  0
 27 28  1  6
 29 28  1  0
 30 28  1  0
 31 28  1  0
 32 27  1  0
 33 32  1  0
 34 32  1  0
 35 32  1  0
 36 27  1  0
 37 36  1  0
 38 36  1  0
 39 36  1  0
 40 26  2  0
 41 40  1  0
 42 40  1  0
 43 23  1  0
 44 42  1  0
 45 46  1  0
 46 47  2  0
 47 48  1  0
 49 47  1  0
 50 49  2  0
 51 50  1  0
 52 46  1  0
 53 52  1  0
 54 55  1  0
 56 54  1  0
 57 54  1  0
 58 59  1  0
 60 58  1  0
 61 58  1  0
 62 63  1  0
 64 62  1  0
 65 62  1  0
 66 21  2  0
 67 22  2  0
 68 44  2  0
 69 45  2  0
 70  1  1  0
 71  5  1  0
 72  9  1  0
 73 21  1  0
 74 43  1  0
 75 74  1  0
 76 44  1  0
 77 51  1  0
 78 50  1  0
 79 49  1  0
 15 70  1  0
 16 71  1  0
 17 72  1  0
 18 20  2  0
 22 73  1  0
 42 43  2  0
 45 76  1  0
 51 52  2  0
 54 77  1  0
 58 78  1  0
 62 79  1  0
 66 67  1  0
 68 69  1  0
M  END
$$$$

