AYUTIA
     RDKit          3D

103107  0  0  0  0  0  0  0  0999 V2000
    7.0698    3.6665    7.7554 Fe  0  0  0  0  0  5  0  0  0  0  0  0
    5.0175    4.1138    8.6573 Ge  0  0  2  0  0  4  0  0  0  0  0  0
    8.0905    3.8306    9.7999 Ge  0  0  1  0  0  4  0  0  0  0  0  0
    3.9859    2.3828    9.7048 Cl  0  0  0  0  0  0  0  0  0  0  0  0
    9.1956    5.6169   10.3793 Cl  0  0  0  0  0  0  0  0  0  0  0  0
    6.3419    3.2817    4.9529 O   0  0  0  0  0  0  0  0  0  0  0  0
    7.4736    0.7739    7.9596 O   0  0  0  0  0  0  0  0  0  0  0  0
    8.8149    5.8450    6.8717 O   0  0  0  0  0  0  0  0  0  0  0  0
    3.4294    4.6698    7.6751 N   0  0  0  0  0  0  0  0  0  0  0  0
    4.6493    5.3615   10.1088 N   0  0  0  0  0  0  0  0  0  0  0  0
    6.9234    3.6720   11.3452 N   0  0  0  0  0  0  0  0  0  0  0  0
    9.2998    2.5005   10.4677 N   0  0  0  0  0  0  0  0  0  0  0  0
    3.4393    4.5652    6.2199 C   0  0  0  0  0  0  0  0  0  0  0  0
    3.8441    5.6825    5.4778 C   0  0  0  0  0  0  0  0  0  0  0  0
    3.8774    5.5645    4.0806 C   0  0  0  0  0  0  0  0  0  0  0  0
    4.1534    6.3058    3.5544 H   0  0  0  0  0  0  0  0  0  0  0  0
    3.5147    4.3850    3.4586 C   0  0  0  0  0  0  0  0  0  0  0  0
    3.5502    4.3166    2.5118 H   0  0  0  0  0  0  0  0  0  0  0  0
    3.1014    3.3081    4.2133 C   0  0  0  0  0  0  0  0  0  0  0  0
    2.8396    2.5085    3.7721 H   0  0  0  0  0  0  0  0  0  0  0  0
    3.0569    3.3598    5.6092 C   0  0  0  0  0  0  0  0  0  0  0  0
    4.2299    7.0121    6.1037 C   0  0  2  0  0  0  0  0  0  0  0  0
    4.1335    6.9301    7.0956 H   0  0  0  0  0  0  0  0  0  0  0  0
    3.2976    8.1316    5.6226 C   0  0  0  0  0  0  0  0  0  0  0  0
    2.3744    7.9157    5.8686 H   0  0  0  0  0  0  0  0  0  0  0  0
    3.3655    8.2168    4.6487 H   0  0  0  0  0  0  0  0  0  0  0  0
    3.5590    8.9773    6.0435 H   0  0  0  0  0  0  0  0  0  0  0  0
    5.6787    7.3695    5.7952 C   0  0  0  0  0  0  0  0  0  0  0  0
    6.2679    6.6634    6.1327 H   0  0  0  0  0  0  0  0  0  0  0  0
    5.9044    8.2189    6.2286 H   0  0  0  0  0  0  0  0  0  0  0  0
    5.7939    7.4563    4.8260 H   0  0  0  0  0  0  0  0  0  0  0  0
    2.5830    2.1467    6.3773 C   0  0  1  0  0  0  0  0  0  0  0  0
    2.5773    2.3805    7.3495 H   0  0  0  0  0  0  0  0  0  0  0  0
    1.1598    1.7528    5.9791 C   0  0  0  0  0  0  0  0  0  0  0  0
    0.5518    2.5011    6.1549 H   0  0  0  0  0  0  0  0  0  0  0  0
    0.8775    0.9733    6.5026 H   0  0  0  0  0  0  0  0  0  0  0  0
    1.1365    1.5304    5.0249 H   0  0  0  0  0  0  0  0  0  0  0  0
    3.5347    0.9698    6.1827 C   0  0  0  0  0  0  0  0  0  0  0  0
    4.4218    1.2066    6.5264 H   0  0  0  0  0  0  0  0  0  0  0  0
    3.6008    0.7570    5.2284 H   0  0  0  0  0  0  0  0  0  0  0  0
    3.1941    0.1899    6.6686 H   0  0  0  0  0  0  0  0  0  0  0  0
    2.3305    5.0998    8.2916 C   0  0  0  0  0  0  0  0  0  0  0  0
    2.3032    5.4342    9.6510 C   0  0  0  0  0  0  0  0  0  0  0  0
    1.4452    5.5086   10.0520 H   0  0  0  0  0  0  0  0  0  0  0  0
    3.3961    5.6689   10.4766 C   0  0  0  0  0  0  0  0  0  0  0  0
    3.1401    6.3389   11.8041 C   0  0  0  0  0  0  0  0  0  0  0  0
    3.5880    5.8363   12.5158 H   0  0  0  0  0  0  0  0  0  0  0  0
    2.1752    6.3612   11.9777 H   0  0  0  0  0  0  0  0  0  0  0  0
    3.4884    7.2544   11.7808 H   0  0  0  0  0  0  0  0  0  0  0  0
    1.0660    5.3069    7.5050 C   0  0  0  0  0  0  0  0  0  0  0  0
    0.9810    4.6008    6.8311 H   0  0  0  0  0  0  0  0  0  0  0  0
    1.0969    6.1802    7.0613 H   0  0  0  0  0  0  0  0  0  0  0  0
    0.2960    5.2753    8.1105 H   0  0  0  0  0  0  0  0  0  0  0  0
    5.7907    5.8481   10.8791 C   0  0  0  0  0  0  0  0  0  0  0  0
    5.5274    6.6891   11.3303 H   0  0  0  0  0  0  0  0  0  0  0  0
    6.5227    6.0659   10.2491 H   0  0  0  0  0  0  0  0  0  0  0  0
    6.3351    4.8806   11.9378 C   0  0  0  0  0  0  0  0  0  0  0  0
    7.0231    5.3447   12.4775 H   0  0  0  0  0  0  0  0  0  0  0  0
    5.5990    4.6181   12.5456 H   0  0  0  0  0  0  0  0  0  0  0  0
    6.6378    2.4376   11.7446 C   0  0  0  0  0  0  0  0  0  0  0  0
    7.4000    1.3290   11.3308 C   0  0  0  0  0  0  0  0  0  0  0  0
    6.9733    0.4803   11.3387 H   0  0  0  0  0  0  0  0  0  0  0  0
    8.7213    1.3715   10.9122 C   0  0  0  0  0  0  0  0  0  0  0  0
    9.5482    0.1166   10.9799 C   0  0  0  0  0  0  0  0  0  0  0  0
   10.3638    0.2901   11.4948 H   0  0  0  0  0  0  0  0  0  0  0  0
    9.7885   -0.1658   10.0728 H   0  0  0  0  0  0  0  0  0  0  0  0
    9.0310   -0.5923   11.4165 H   0  0  0  0  0  0  0  0  0  0  0  0
    5.5288    2.1762   12.7309 C   0  0  0  0  0  0  0  0  0  0  0  0
    4.7615    2.7477   12.5187 H   0  0  0  0  0  0  0  0  0  0  0  0
    5.8439    2.3755   13.6372 H   0  0  0  0  0  0  0  0  0  0  0  0
    5.2599    1.2353   12.6781 H   0  0  0  0  0  0  0  0  0  0  0  0
   10.7390    2.6736   10.5352 C   0  0  0  0  0  0  0  0  0  0  0  0
   11.2933    3.1498   11.7387 C   0  0  0  0  0  0  0  0  0  0  0  0
   12.6764    3.3043   11.8039 C   0  0  0  0  0  0  0  0  0  0  0  0
   13.0740    3.6055   12.6123 H   0  0  0  0  0  0  0  0  0  0  0  0
   13.4835    3.0270   10.7113 C   0  0  0  0  0  0  0  0  0  0  0  0
   14.4241    3.1460   10.7714 H   0  0  0  0  0  0  0  0  0  0  0  0
   12.9171    2.5782    9.5370 C   0  0  0  0  0  0  0  0  0  0  0  0
   13.4762    2.4000    8.7898 H   0  0  0  0  0  0  0  0  0  0  0  0
   11.5436    2.3802    9.4222 C   0  0  0  0  0  0  0  0  0  0  0  0
   10.4380    3.4663   12.9617 C   0  0  1  0  0  0  0  0  0  0  0  0
    9.4793    3.4639   12.6753 H   0  0  0  0  0  0  0  0  0  0  0  0
   10.6072    2.4037   14.0413 C   0  0  0  0  0  0  0  0  0  0  0  0
   10.3387    1.5310   13.6857 H   0  0  0  0  0  0  0  0  0  0  0  0
   10.0446    2.6292   14.8120 H   0  0  0  0  0  0  0  0  0  0  0  0
   11.5453    2.3688   14.3208 H   0  0  0  0  0  0  0  0  0  0  0  0
   10.7551    4.8482   13.5302 C   0  0  0  0  0  0  0  0  0  0  0  0
   10.6592    5.5221   12.8244 H   0  0  0  0  0  0  0  0  0  0  0  0
   11.6742    4.8595   13.8693 H   0  0  0  0  0  0  0  0  0  0  0  0
   10.1345    5.0518   14.2612 H   0  0  0  0  0  0  0  0  0  0  0  0
   10.9777    1.8576    8.1143 C   0  0  2  0  0  0  0  0  0  0  0  0
   10.0006    1.6920    8.2487 H   0  0  0  0  0  0  0  0  0  0  0  0
   11.6281    0.5255    7.7091 C   0  0  0  0  0  0  0  0  0  0  0  0
   11.5670   -0.1077    8.4546 H   0  0  0  0  0  0  0  0  0  0  0  0
   12.5698    0.6768    7.4850 H   0  0  0  0  0  0  0  0  0  0  0  0
   11.1614    0.1582    6.9295 H   0  0  0  0  0  0  0  0  0  0  0  0
   11.1266    2.9003    7.0089 C   0  0  0  0  0  0  0  0  0  0  0  0
   10.7216    3.7442    7.2995 H   0  0  0  0  0  0  0  0  0  0  0  0
   10.6753    2.5838    6.1984 H   0  0  0  0  0  0  0  0  0  0  0  0
   12.0772    3.0422    6.8194 H   0  0  0  0  0  0  0  0  0  0  0  0
    6.5635    3.4522    6.0700 C   0  0  0  0  0  0  0  0  0  0  0  0
    7.3081    1.9220    7.9072 C   0  0  0  0  0  0  0  0  0  0  0  0
    8.1179    5.0023    7.2475 C   0  0  0  0  0  0  0  0  0  0  0  0
  1  2  1  0
  2  4  1  1
  3  1  1  0
  3  5  1  6
  6101  3  0
  7102  3  0
  8103  3  0
  9  2  1  0
 10  2  1  0
 11  3  1  0
 12  3  1  0
 13  9  1  0
 14 13  2  0
 15 14  1  0
 16 15  1  0
 17 15  2  0
 18 17  1  0
 19 17  1  0
 20 19  1  0
 21 13  1  0
 22 14  1  0
 22 23  1  1
 24 22  1  0
 25 24  1  0
 26 24  1  0
 27 24  1  0
 28 22  1  0
 29 28  1  0
 30 28  1  0
 31 28  1  0
 32 21  1  0
 32 33  1  1
 34 32  1  0
 35 34  1  0
 36 34  1  0
 37 34  1  0
 38 32  1  0
 39 38  1  0
 40 38  1  0
 41 38  1  0
 42  9  8  0
 43 42  8  0
 44 43  1  0
 45 10  8  0
 46 45  1  0
 47 46  1  0
 48 46  1  0
 49 46  1  0
 50 42  1  0
 51 50  1  0
 52 50  1  0
 53 50  1  0
 54 10  1  0
 55 54  1  0
 56 54  1  0
 57 11  1  0
 58 57  1  0
 59 57  1  0
 60 11  8  0
 61 60  8  0
 62 61  1  0
 63 12  8  0
 64 63  1  0
 65 64  1  0
 66 64  1  0
 67 64  1  0
 68 60  1  0
 69 68  1  0
 70 68  1  0
 71 68  1  0
 72 12  1  0
 73 72  2  0
 74 73  1  0
 75 74  1  0
 76 74  2  0
 77 76  1  0
 78 76  1  0
 79 78  1  0
 80 72  1  0
 81 73  1  0
 81 82  1  6
 83 81  1  0
 84 83  1  0
 85 83  1  0
 86 83  1  0
 87 81  1  0
 88 87  1  0
 89 87  1  0
 90 87  1  0
 91 80  1  0
 91 92  1  1
 93 91  1  0
 94 93  1  0
 95 93  1  0
 96 93  1  0
 97 91  1  0
 98 97  1  0
 99 97  1  0
100 97  1  0
101  1  1  0
102  1  1  0
103  1  1  0
 19 21  2  0
 43 45  8  0
 54 57  1  0
 61 63  8  0
 78 80  2  0
M  END
$$$$
