ABUZEG
     RDKit          3D

 96101  0  0  0  0  0  0  0  0999 V2000
    9.5202    4.7536    5.1152 N   0  0  0  0  0  0  0  0  0  0  0  0
   11.0703    5.7794    3.7991 O   0  0  0  0  0  0  0  0  0  0  0  0
    7.9455    3.8676    6.4980 O   0  0  0  0  0  0  0  0  0  0  0  0
   10.8141    5.2489    4.8564 C   0  0  0  0  0  0  0  0  0  0  0  0
    9.0964    4.2230    6.3425 C   0  0  0  0  0  0  0  0  0  0  0  0
   10.1176    4.0990    7.4022 C   0  0  0  0  0  0  0  0  0  0  0  0
   11.4553    4.4835    7.1556 C   0  0  0  0  0  0  0  0  0  0  0  0
   11.8277    5.0474    5.9130 C   0  0  0  0  0  0  0  0  0  0  0  0
    9.7695    3.5808    8.6325 C   0  0  0  0  0  0  0  0  0  0  0  0
    8.8651    3.3476    8.8079 H   0  0  0  0  0  0  0  0  0  0  0  0
   13.1389    5.4020    5.6879 C   0  0  0  0  0  0  0  0  0  0  0  0
   13.3882    5.7768    4.8511 H   0  0  0  0  0  0  0  0  0  0  0  0
    8.5408    4.8451    4.0502 C   0  0  0  0  0  0  0  0  0  0  0  0
    8.1174    3.7022    3.4186 C   0  0  0  0  0  0  0  0  0  0  0  0
    8.4598    2.8576    3.6873 H   0  0  0  0  0  0  0  0  0  0  0  0
    7.1871    3.7779    2.3857 C   0  0  0  0  0  0  0  0  0  0  0  0
    6.9003    2.9913    1.9378 H   0  0  0  0  0  0  0  0  0  0  0  0
    6.6841    5.0237    2.0190 C   0  0  0  0  0  0  0  0  0  0  0  0
    7.1328    6.1674    2.6636 C   0  0  0  0  0  0  0  0  0  0  0  0
    6.7985    7.0173    2.4018 H   0  0  0  0  0  0  0  0  0  0  0  0
    8.0484    6.0803    3.6705 C   0  0  0  0  0  0  0  0  0  0  0  0
    8.3475    6.8668    4.1107 H   0  0  0  0  0  0  0  0  0  0  0  0
    5.7535    5.2216    1.0474 O   0  0  0  0  0  0  0  0  0  0  0  0
    5.3410    4.1615    0.2297 C   0  0  0  0  0  0  0  0  0  0  0  0
    4.8815    3.4532    0.7388 H   0  0  0  0  0  0  0  0  0  0  0  0
    6.0966    3.7752   -0.2833 H   0  0  0  0  0  0  0  0  0  0  0  0
    4.3495    4.9586   -0.7021 C   0  0  2  0  0  0  0  0  0  0  0  0
    4.8053    5.7856   -1.0305 H   0  0  0  0  0  0  0  0  0  0  0  0
    3.0995    5.3536    0.0536 C   0  0  0  0  0  0  0  0  0  0  0  0
    3.3429    5.9914    0.7695 H   0  0  0  0  0  0  0  0  0  0  0  0
    2.4796    5.8146   -0.5673 H   0  0  0  0  0  0  0  0  0  0  0  0
    2.4084    4.1791    0.6508 C   0  0  0  0  0  0  0  0  0  0  0  0
    3.0549    3.6661    1.1990 H   0  0  0  0  0  0  0  0  0  0  0  0
    2.0806    3.5913   -0.0689 H   0  0  0  0  0  0  0  0  0  0  0  0
    1.2290    4.6102    1.5466 C   0  0  0  0  0  0  0  0  0  0  0  0
    1.5569    5.1354    2.3084 H   0  0  0  0  0  0  0  0  0  0  0  0
    0.6109    5.1855    1.0183 H   0  0  0  0  0  0  0  0  0  0  0  0
    0.4468    3.4312    2.0672 C   0  0  0  0  0  0  0  0  0  0  0  0
    1.0312    2.8743    2.6192 H   0  0  0  0  0  0  0  0  0  0  0  0
    0.1077    2.9025    1.3131 H   0  0  0  0  0  0  0  0  0  0  0  0
   -0.3093    3.7497    2.6055 H   0  0  0  0  0  0  0  0  0  0  0  0
    4.1136    4.0172   -1.8888 C   0  0  0  0  0  0  0  0  0  0  0  0
    4.0039    3.0925   -1.5527 H   0  0  0  0  0  0  0  0  0  0  0  0
    3.2733    4.2749   -2.3436 H   0  0  0  0  0  0  0  0  0  0  0  0
    5.2262    4.0471   -2.8711 C   0  0  0  0  0  0  0  0  0  0  0  0
    6.0818    4.0673   -2.3941 H   0  0  0  0  0  0  0  0  0  0  0  0
    5.1463    4.8521   -3.4285 H   0  0  0  0  0  0  0  0  0  0  0  0
    5.1862    3.2526   -3.4392 H   0  0  0  0  0  0  0  0  0  0  0  0
   14.3581    4.0444   10.1975 N   0  0  0  0  0  0  0  0  0  0  0  0
   12.8080    3.0186   11.5136 O   0  0  0  0  0  0  0  0  0  0  0  0
   15.9328    4.9304    8.8148 O   0  0  0  0  0  0  0  0  0  0  0  0
   13.0642    3.5491   10.4563 C   0  0  0  0  0  0  0  0  0  0  0  0
   14.7819    4.5750    8.9702 C   0  0  0  0  0  0  0  0  0  0  0  0
   13.7607    4.6990    7.9105 C   0  0  0  0  0  0  0  0  0  0  0  0
   12.4230    4.3145    8.1571 C   0  0  0  0  0  0  0  0  0  0  0  0
   12.0506    3.7506    9.3997 C   0  0  0  0  0  0  0  0  0  0  0  0
   14.1087    5.2172    6.6802 C   0  0  0  0  0  0  0  0  0  0  0  0
   15.0132    5.4504    6.5048 H   0  0  0  0  0  0  0  0  0  0  0  0
   10.7394    3.3960    9.6248 C   0  0  0  0  0  0  0  0  0  0  0  0
   10.4901    3.0212   10.4616 H   0  0  0  0  0  0  0  0  0  0  0  0
   15.3375    3.9529   11.2625 C   0  0  0  0  0  0  0  0  0  0  0  0
   15.7609    5.0958   11.8942 C   0  0  0  0  0  0  0  0  0  0  0  0
   15.4185    5.9404   11.6254 H   0  0  0  0  0  0  0  0  0  0  0  0
   16.6912    5.0201   12.9270 C   0  0  0  0  0  0  0  0  0  0  0  0
   16.9780    5.8067   13.3749 H   0  0  0  0  0  0  0  0  0  0  0  0
   17.1942    3.7743   13.2937 C   0  0  0  0  0  0  0  0  0  0  0  0
   16.7455    2.6306   12.6491 C   0  0  0  0  0  0  0  0  0  0  0  0
   17.0798    1.7807   12.9109 H   0  0  0  0  0  0  0  0  0  0  0  0
   15.8299    2.7177   11.6423 C   0  0  0  0  0  0  0  0  0  0  0  0
   15.5308    1.9312   11.2020 H   0  0  0  0  0  0  0  0  0  0  0  0
   18.1248    3.5764   14.2653 O   0  0  0  0  0  0  0  0  0  0  0  0
   18.5373    4.6365   15.0830 C   0  0  0  0  0  0  0  0  0  0  0  0
   18.9968    5.3448   14.5739 H   0  0  0  0  0  0  0  0  0  0  0  0
   17.7817    5.0228   15.5960 H   0  0  0  0  0  0  0  0  0  0  0  0
   19.5288    3.8394   16.0148 C   0  0  1  0  0  0  0  0  0  0  0  0
   19.0730    3.0124   16.3433 H   0  0  0  0  0  0  0  0  0  0  0  0
   20.7788    3.4444   15.2591 C   0  0  0  0  0  0  0  0  0  0  0  0
   20.5354    2.8066   14.5433 H   0  0  0  0  0  0  0  0  0  0  0  0
   21.3987    2.9834   15.8801 H   0  0  0  0  0  0  0  0  0  0  0  0
   21.4699    4.6189   14.6619 C   0  0  0  0  0  0  0  0  0  0  0  0
   20.8233    5.1319   14.1137 H   0  0  0  0  0  0  0  0  0  0  0  0
   21.7977    5.2067   15.3816 H   0  0  0  0  0  0  0  0  0  0  0  0
   22.6493    4.1878   13.7661 C   0  0  0  0  0  0  0  0  0  0  0  0
   22.3214    3.6626   13.0043 H   0  0  0  0  0  0  0  0  0  0  0  0
   23.2674    3.6125   14.2944 H   0  0  0  0  0  0  0  0  0  0  0  0
   23.4315    5.3668   13.2455 C   0  0  0  0  0  0  0  0  0  0  0  0
   22.8471    5.9237   12.6935 H   0  0  0  0  0  0  0  0  0  0  0  0
   23.7706    5.8955   13.9997 H   0  0  0  0  0  0  0  0  0  0  0  0
   24.1876    5.0483   12.7073 H   0  0  0  0  0  0  0  0  0  0  0  0
   19.7647    4.7808   17.2015 C   0  0  0  0  0  0  0  0  0  0  0  0
   19.8744    5.7055   16.8654 H   0  0  0  0  0  0  0  0  0  0  0  0
   20.6050    4.5231   17.6563 H   0  0  0  0  0  0  0  0  0  0  0  0
   18.6521    4.7509   18.1839 C   0  0  0  0  0  0  0  0  0  0  0  0
   17.7965    4.7307   17.7069 H   0  0  0  0  0  0  0  0  0  0  0  0
   18.7320    3.9459   18.7412 H   0  0  0  0  0  0  0  0  0  0  0  0
   18.6921    5.5454   18.7520 H   0  0  0  0  0  0  0  0  0  0  0  0
  1  4  1  0
  2  4  2  0
  3  5  2  0
  4  8  1  0
  5  1  1  0
  6  5  1  0
  7  6  1  0
  8  7  2  0
  9  6  2  0
 10  9  1  0
 11  8  1  0
 12 11  1  0
 13  1  1  0
 14 13  2  0
 15 14  1  0
 16 14  1  0
 17 16  1  0
 18 16  2  0
 19 18  1  0
 20 19  1  0
 21 13  1  0
 22 21  1  0
 23 18  1  0
 24 23  1  0
 25 24  1  0
 26 24  1  0
 27 24  1  0
 27 28  1  6
 29 27  1  0
 30 29  1  0
 31 29  1  0
 32 29  1  0
 33 32  1  0
 34 32  1  0
 35 32  1  0
 36 35  1  0
 37 35  1  0
 38 35  1  0
 39 38  1  0
 40 38  1  0
 41 38  1  0
 42 27  1  0
 43 42  1  0
 44 42  1  0
 45 42  1  0
 46 45  1  0
 47 45  1  0
 48 45  1  0
 49 52  1  0
 50 52  2  0
 51 53  2  0
 52 56  1  0
 53 49  1  0
 54 53  1  0
 55  7  1  0
 56 55  1  0
 57 11  2  0
 58 57  1  0
 59  9  1  0
 60 59  1  0
 61 49  1  0
 62 61  2  0
 63 62  1  0
 64 62  1  0
 65 64  1  0
 66 64  2  0
 67 66  1  0
 68 67  1  0
 69 61  1  0
 70 69  1  0
 71 66  1  0
 72 71  1  0
 73 72  1  0
 74 72  1  0
 75 72  1  0
 75 76  1  1
 77 75  1  0
 78 77  1  0
 79 77  1  0
 80 77  1  0
 81 80  1  0
 82 80  1  0
 83 80  1  0
 84 83  1  0
 85 83  1  0
 86 83  1  0
 87 86  1  0
 88 86  1  0
 89 86  1  0
 90 75  1  0
 91 90  1  0
 92 90  1  0
 93 90  1  0
 94 93  1  0
 95 93  1  0
 96 93  1  0
 19 21  2  0
 54 55  2  0
 54 57  1  0
 56 59  2  0
 67 69  2  0
M  END
$$$$
