AYUVOI
     RDKit          3D

127130  0  0  0  0  0  0  0  0999 V2000
   13.1846    8.6141   14.2427 Li  0  0  0  0  0  3  0  0  0  0  0  0
   17.4112    6.1667   10.8148 Li  0  0  0  0  0  3  0  0  0  0  0  0
   13.4876   10.5005   14.1178 O   0  0  0  0  0  0  0  0  0  0  0  0
   12.1525    7.6705   15.5411 N   0  0  0  0  0  0  0  0  0  0  0  0
   13.3413    7.3101   12.8472 N   0  0  0  0  0  0  0  0  0  0  0  0
   16.8101    6.2990   12.6417 N   0  0  0  0  0  0  0  0  0  0  0  0
   17.5813    4.2713   10.6077 N   0  0  0  0  0  0  0  0  0  0  0  0
   12.0615    8.1186   16.8875 C   0  0  0  0  0  0  0  0  0  0  0  0
   12.9702    7.6072   17.8412 C   0  0  0  0  0  0  0  0  0  0  0  0
   12.9171    8.0935   19.1446 C   0  0  0  0  0  0  0  0  0  0  0  0
   13.5095    7.7367   19.7960 H   0  0  0  0  0  0  0  0  0  0  0  0
   12.0252    9.0808   19.5159 C   0  0  0  0  0  0  0  0  0  0  0  0
   11.9952    9.3884   20.4142 H   0  0  0  0  0  0  0  0  0  0  0  0
   11.1769    9.6165   18.5636 C   0  0  0  0  0  0  0  0  0  0  0  0
   10.5807   10.3134   18.8108 H   0  0  0  0  0  0  0  0  0  0  0  0
   11.1794    9.1545   17.2497 C   0  0  0  0  0  0  0  0  0  0  0  0
   14.0090    6.5752   17.4436 C   0  0  2  0  0  0  0  0  0  0  0  0
   14.0815    6.5973   16.4464 H   0  0  0  0  0  0  0  0  0  0  0  0
   13.6006    5.1745   17.8303 C   0  0  0  0  0  0  0  0  0  0  0  0
   12.7497    4.9510   17.3981 H   0  0  0  0  0  0  0  0  0  0  0  0
   13.4963    5.1212   18.8034 H   0  0  0  0  0  0  0  0  0  0  0  0
   14.2900    4.5409   17.5407 H   0  0  0  0  0  0  0  0  0  0  0  0
   15.3916    6.8892   18.0024 C   0  0  0  0  0  0  0  0  0  0  0  0
   16.0407    6.2455   17.6494 H   0  0  0  0  0  0  0  0  0  0  0  0
   15.3700    6.8288   18.9803 H   0  0  0  0  0  0  0  0  0  0  0  0
   15.6530    7.7957   17.7368 H   0  0  0  0  0  0  0  0  0  0  0  0
   10.2661    9.8149   16.2298 C   0  0  1  0  0  0  0  0  0  0  0  0
   10.3955    9.3481   15.3550 H   0  0  0  0  0  0  0  0  0  0  0  0
    8.7945    9.6950   16.6092 C   0  0  0  0  0  0  0  0  0  0  0  0
    8.5565    8.7491   16.6995 H   0  0  0  0  0  0  0  0  0  0  0  0
    8.2430   10.1060   15.9111 H   0  0  0  0  0  0  0  0  0  0  0  0
    8.6387   10.1542   17.4610 H   0  0  0  0  0  0  0  0  0  0  0  0
   10.6404   11.2818   16.0367 C   0  0  0  0  0  0  0  0  0  0  0  0
   11.5946   11.3499   15.8229 H   0  0  0  0  0  0  0  0  0  0  0  0
   10.4544   11.7778   16.8611 H   0  0  0  0  0  0  0  0  0  0  0  0
   10.1134   11.6596   15.3020 H   0  0  0  0  0  0  0  0  0  0  0  0
   11.4624    6.6074   15.1498 C   0  0  0  0  0  0  0  0  0  0  0  0
   11.6143    5.9912   13.8954 C   0  0  0  0  0  0  0  0  0  0  0  0
   11.0230    5.2666   13.7283 H   0  0  0  0  0  0  0  0  0  0  0  0
   12.5165    6.2873   12.8406 C   0  0  0  0  0  0  0  0  0  0  0  0
   12.4817    5.3297   11.6678 C   0  0  0  0  0  0  0  0  0  0  0  0
   12.3812    5.8365   10.8352 H   0  0  0  0  0  0  0  0  0  0  0  0
   11.7244    4.7159   11.7700 H   0  0  0  0  0  0  0  0  0  0  0  0
   13.3162    4.8169   11.6398 H   0  0  0  0  0  0  0  0  0  0  0  0
   10.4029    6.0162   16.0650 C   0  0  0  0  0  0  0  0  0  0  0  0
   10.7830    5.8769   16.9576 H   0  0  0  0  0  0  0  0  0  0  0  0
   10.0992    5.1582   15.7019 H   0  0  0  0  0  0  0  0  0  0  0  0
    9.6434    6.6324   16.1262 H   0  0  0  0  0  0  0  0  0  0  0  0
   14.2553    7.4818   11.7146 C   0  0  0  0  0  0  0  0  0  0  0  0
   13.7864    7.9510   10.9796 H   0  0  0  0  0  0  0  0  0  0  0  0
   14.5388    6.5939   11.3809 H   0  0  0  0  0  0  0  0  0  0  0  0
   15.4756    8.2812   12.1294 C   0  0  0  0  0  0  0  0  0  0  0  0
   15.1853    9.1564   12.4893 H   0  0  0  0  0  0  0  0  0  0  0  0
   16.0397    8.4512   11.3335 H   0  0  0  0  0  0  0  0  0  0  0  0
   16.3004    7.5553   13.1818 C   0  0  0  0  0  0  0  0  0  0  0  0
   17.0573    8.1275   13.4642 H   0  0  0  0  0  0  0  0  0  0  0  0
   15.7390    7.3723   13.9764 H   0  0  0  0  0  0  0  0  0  0  0  0
   16.8993    5.2532   13.4278 C   0  0  0  0  0  0  0  0  0  0  0  0
   17.3234    3.9736   12.9913 C   0  0  0  0  0  0  0  0  0  0  0  0
   17.4490    3.3330   13.6815 H   0  0  0  0  0  0  0  0  0  0  0  0
   17.5858    3.5110   11.6961 C   0  0  0  0  0  0  0  0  0  0  0  0
   17.8761    2.0319   11.5806 C   0  0  0  0  0  0  0  0  0  0  0  0
   18.7301    1.9018   11.1180 H   0  0  0  0  0  0  0  0  0  0  0  0
   17.1597    1.5972   11.0724 H   0  0  0  0  0  0  0  0  0  0  0  0
   17.9263    1.6380   12.4765 H   0  0  0  0  0  0  0  0  0  0  0  0
   16.5410    5.3320   14.9026 C   0  0  0  0  0  0  0  0  0  0  0  0
   17.0167    6.0833   15.3146 H   0  0  0  0  0  0  0  0  0  0  0  0
   16.8005    4.4980   15.3468 H   0  0  0  0  0  0  0  0  0  0  0  0
   15.5748    5.4657   14.9972 H   0  0  0  0  0  0  0  0  0  0  0  0
   17.7378    3.6405    9.3404 C   0  0  0  0  0  0  0  0  0  0  0  0
   16.6163    3.0900    8.6875 C   0  0  0  0  0  0  0  0  0  0  0  0
   16.7873    2.5141    7.4313 C   0  0  0  0  0  0  0  0  0  0  0  0
   16.0345    2.1419    6.9867 H   0  0  0  0  0  0  0  0  0  0  0  0
   18.0195    2.4685    6.8159 C   0  0  0  0  0  0  0  0  0  0  0  0
   18.1160    2.0579    5.9647 H   0  0  0  0  0  0  0  0  0  0  0  0
   19.1139    3.0265    7.4498 C   0  0  0  0  0  0  0  0  0  0  0  0
   19.9630    3.0002    7.0248 H   0  0  0  0  0  0  0  0  0  0  0  0
   18.9927    3.6275    8.7025 C   0  0  0  0  0  0  0  0  0  0  0  0
   15.2227    3.1579    9.3065 C   0  0  1  0  0  0  0  0  0  0  0  0
   15.3267    3.4182   10.2663 H   0  0  0  0  0  0  0  0  0  0  0  0
   14.3878    4.2297    8.6211 C   0  0  0  0  0  0  0  0  0  0  0  0
   13.4901    4.2455    9.0141 H   0  0  0  0  0  0  0  0  0  0  0  0
   14.3218    4.0301    7.6639 H   0  0  0  0  0  0  0  0  0  0  0  0
   14.8136    5.1036    8.7440 H   0  0  0  0  0  0  0  0  0  0  0  0
   14.4927    1.8227    9.2633 C   0  0  0  0  0  0  0  0  0  0  0  0
   13.6451    1.8978    9.7494 H   0  0  0  0  0  0  0  0  0  0  0  0
   15.0488    1.1323    9.6812 H   0  0  0  0  0  0  0  0  0  0  0  0
   14.3140    1.5779    8.3312 H   0  0  0  0  0  0  0  0  0  0  0  0
   20.2168    4.2447    9.3609 C   0  0  2  0  0  0  0  0  0  0  0  0
   19.9139    4.7189   10.1874 H   0  0  0  0  0  0  0  0  0  0  0  0
   20.8939    5.2623    8.4639 C   0  0  0  0  0  0  0  0  0  0  0  0
   20.2391    5.9336    8.1797 H   0  0  0  0  0  0  0  0  0  0  0  0
   21.2607    4.8096    7.6757 H   0  0  0  0  0  0  0  0  0  0  0  0
   21.6189    5.7003    8.9561 H   0  0  0  0  0  0  0  0  0  0  0  0
   21.2215    3.1716    9.7784 C   0  0  0  0  0  0  0  0  0  0  0  0
   21.9898    3.5951   10.2150 H   0  0  0  0  0  0  0  0  0  0  0  0
   21.5251    2.6818    8.9857 H   0  0  0  0  0  0  0  0  0  0  0  0
   20.7936    2.5488   10.4028 H   0  0  0  0  0  0  0  0  0  0  0  0
   11.8447   10.5099   12.4092 C   0  0  0  0  0  0  0  0  0  0  0  0
   11.4296   11.0569   11.7102 H   0  0  0  0  0  0  0  0  0  0  0  0
   11.1678   10.2562   13.0708 H   0  0  0  0  0  0  0  0  0  0  0  0
   12.2271    9.7017   12.0072 H   0  0  0  0  0  0  0  0  0  0  0  0
   12.9237   11.2909   13.0764 C   0  0  0  0  0  0  0  0  0  0  0  0
   13.6234   11.5300   12.4182 H   0  0  0  0  0  0  0  0  0  0  0  0
   12.5511   12.1275   13.4523 H   0  0  0  0  0  0  0  0  0  0  0  0
   14.4851   11.2095   14.8756 C   0  0  0  0  0  0  0  0  0  0  0  0
   14.0897   12.0256   15.2727 H   0  0  0  0  0  0  0  0  0  0  0  0
   15.2293   11.4811   14.2822 H   0  0  0  0  0  0  0  0  0  0  0  0
   14.9957   10.3151   15.9548 C   0  0  0  0  0  0  0  0  0  0  0  0
   15.6949   10.7800   16.4605 H   0  0  0  0  0  0  0  0  0  0  0  0
   15.3677    9.5010   15.5558 H   0  0  0  0  0  0  0  0  0  0  0  0
   14.2604   10.0773   16.5573 H   0  0  0  0  0  0  0  0  0  0  0  0
   17.6772    7.2313    9.1918 O   0  0  0  0  0  0  0  0  0  0  0  0
   16.0434    7.7727    7.5347 C   0  0  0  0  0  0  0  0  0  0  0  0
   15.6099    7.4343    6.7248 H   0  0  0  0  0  0  0  0  0  0  0  0
   16.3831    8.6771    7.3718 H   0  0  0  0  0  0  0  0  0  0  0  0
   15.3929    7.7960    8.2685 H   0  0  0  0  0  0  0  0  0  0  0  0
   17.1353    6.9084    7.8911 C   0  0  0  0  0  0  0  0  0  0  0  0
   17.8492    6.9886    7.2113 H   0  0  0  0  0  0  0  0  0  0  0  0
   16.8199    5.9699    7.8939 H   0  0  0  0  0  0  0  0  0  0  0  0
   18.5458    8.3296    9.1928 C   0  0  0  0  0  0  0  0  0  0  0  0
   18.0287    9.1733    9.1978 H   0  0  0  0  0  0  0  0  0  0  0  0
   19.1124    8.3155    8.3795 H   0  0  0  0  0  0  0  0  0  0  0  0
   19.4114    8.2418   10.4288 C   0  0  0  0  0  0  0  0  0  0  0  0
   20.0482    8.9874   10.4367 H   0  0  0  0  0  0  0  0  0  0  0  0
   19.9025    7.3937   10.4259 H   0  0  0  0  0  0  0  0  0  0  0  0
   18.8456    8.2884   11.2280 H   0  0  0  0  0  0  0  0  0  0  0  0
  1  3  1  0
  2  6  1  0
  3103  1  0
  4  1  1  0
  5  1  1  0
  6 55  1  0
  7  2  1  0
  8  4  1  0
  9  8  2  0
 10  9  1  0
 11 10  1  0
 12 10  2  0
 13 12  1  0
 14 12  1  0
 15 14  1  0
 16  8  1  0
 17  9  1  0
 17 18  1  6
 19 17  1  0
 20 19  1  0
 21 19  1  0
 22 19  1  0
 23 17  1  0
 24 23  1  0
 25 23  1  0
 26 23  1  0
 27 16  1  0
 27 28  1  6
 29 27  1  0
 30 29  1  0
 31 29  1  0
 32 29  1  0
 33 27  1  0
 34 33  1  0
 35 33  1  0
 36 33  1  0
 37  4  8  0
 38 37  8  0
 39 38  1  0
 40  5  8  0
 41 40  1  0
 42 41  1  0
 43 41  1  0
 44 41  1  0
 45 37  1  0
 46 45  1  0
 47 45  1  0
 48 45  1  0
 49  5  1  0
 50 49  1  0
 51 49  1  0
 52 49  1  0
 53 52  1  0
 54 52  1  0
 55 52  1  0
 56 55  1  0
 57 55  1  0
 58  6  8  0
 59 58  8  0
 60 59  1  0
 61  7  8  0
 62 61  1  0
 63 62  1  0
 64 62  1  0
 65 62  1  0
 66 58  1  0
 67 66  1  0
 68 66  1  0
 69 66  1  0
 70  7  1  0
 71 70  2  0
 72 71  1  0
 73 72  1  0
 74 72  2  0
 75 74  1  0
 76 74  1  0
 77 76  1  0
 78 70  1  0
 79 71  1  0
 79 80  1  1
 81 79  1  0
 82 81  1  0
 83 81  1  0
 84 81  1  0
 85 79  1  0
 86 85  1  0
 87 85  1  0
 88 85  1  0
 89 78  1  0
 89 90  1  1
 91 89  1  0
 92 91  1  0
 93 91  1  0
 94 91  1  0
 95 89  1  0
 96 95  1  0
 97 95  1  0
 98 95  1  0
 99100  1  0
101 99  1  0
102 99  1  0
103 99  1  0
104103  1  0
105103  1  0
106  3  1  0
107106  1  0
108106  1  0
109106  1  0
110109  1  0
111109  1  0
112109  1  0
113  2  1  0
114115  1  0
116114  1  0
117114  1  0
118113  1  0
119118  1  0
120118  1  0
121113  1  0
122121  1  0
123121  1  0
124121  1  0
125124  1  0
126124  1  0
127124  1  0
 14 16  2  0
 38 40  8  0
 59 61  8  0
 76 78  2  0
114118  1  0
M  END
$$$$
