AYURAQ
     RDKit          3D

 92 93  0  0  0  0  0  0  0  0999 V2000
    9.3869   13.8057   15.7052 N   0  0  0  0  0  0  0  0  0  0  0  0
    9.5865   13.6224   18.6181 N   0  0  0  0  0  0  0  0  0  0  0  0
   11.7858   11.8917   18.7809 N   0  0  0  0  0  0  0  0  0  0  0  0
   14.0914    8.5157   21.3551 N   0  0  0  0  0  0  0  0  0  0  0  0
    9.7653   14.1515   14.3802 C   0  0  0  0  0  0  0  0  0  0  0  0
   10.1109   15.4855   14.0770 C   0  0  0  0  0  0  0  0  0  0  0  0
   10.5193   15.7957   12.7729 C   0  0  0  0  0  0  0  0  0  0  0  0
   10.7475   16.6931   12.5605 H   0  0  0  0  0  0  0  0  0  0  0  0
   10.5986   14.8296   11.7874 C   0  0  0  0  0  0  0  0  0  0  0  0
   10.8598   15.0657   10.9051 H   0  0  0  0  0  0  0  0  0  0  0  0
   10.2945   13.5158   12.0970 C   0  0  0  0  0  0  0  0  0  0  0  0
   10.3698   12.8480   11.4256 H   0  0  0  0  0  0  0  0  0  0  0  0
    9.8783   13.1554   13.3821 C   0  0  0  0  0  0  0  0  0  0  0  0
    9.5773   11.7006   13.7069 C   0  0  2  0  0  0  0  0  0  0  0  0
    8.8883   11.6885   14.4316 H   0  0  0  0  0  0  0  0  0  0  0  0
   10.8322   11.0115   14.2491 C   0  0  0  0  0  0  0  0  0  0  0  0
   11.1796   11.5185   15.0122 H   0  0  0  0  0  0  0  0  0  0  0  0
   11.5133   10.9726   13.5454 H   0  0  0  0  0  0  0  0  0  0  0  0
   10.6070   10.1019   14.5362 H   0  0  0  0  0  0  0  0  0  0  0  0
    9.0194   10.9158   12.5274 C   0  0  0  0  0  0  0  0  0  0  0  0
    8.2649   11.4041   12.1376 H   0  0  0  0  0  0  0  0  0  0  0  0
    8.7163   10.0361   12.8345 H   0  0  0  0  0  0  0  0  0  0  0  0
    9.7196   10.8019   11.8508 H   0  0  0  0  0  0  0  0  0  0  0  0
   10.0564   16.5925   15.1148 C   0  0  1  0  0  0  0  0  0  0  0  0
    9.7972   16.1764   15.9864 H   0  0  0  0  0  0  0  0  0  0  0  0
   11.4294   17.2514   15.3069 C   0  0  0  0  0  0  0  0  0  0  0  0
   12.0796   16.5749   15.5898 H   0  0  0  0  0  0  0  0  0  0  0  0
   11.3642   17.9487   15.9923 H   0  0  0  0  0  0  0  0  0  0  0  0
   11.7210   17.6511   14.4610 H   0  0  0  0  0  0  0  0  0  0  0  0
    9.0086   17.6477   14.7794 C   0  0  0  0  0  0  0  0  0  0  0  0
    8.1379   17.2151   14.6538 H   0  0  0  0  0  0  0  0  0  0  0  0
    9.2642   18.1122   13.9555 H   0  0  0  0  0  0  0  0  0  0  0  0
    8.9487   18.2940   15.5138 H   0  0  0  0  0  0  0  0  0  0  0  0
    8.1016   13.8679   16.0307 C   0  0  0  0  0  0  0  0  0  0  0  0
    7.5868   13.6670   17.3299 C   0  0  0  0  0  0  0  0  0  0  0  0
    6.6443   13.5605   17.3834 H   0  0  0  0  0  0  0  0  0  0  0  0
    8.2825   13.6018   18.5730 C   0  0  0  0  0  0  0  0  0  0  0  0
    7.4055   13.4940   19.8104 C   0  0  0  0  0  0  0  0  0  0  0  0
    7.7442   12.7797   20.3897 H   0  0  0  0  0  0  0  0  0  0  0  0
    6.4857   13.2883   19.5421 H   0  0  0  0  0  0  0  0  0  0  0  0
    7.4213   14.3444   20.2973 H   0  0  0  0  0  0  0  0  0  0  0  0
   10.3047   13.5293   19.8763 C   0  0  0  0  0  0  0  0  0  0  0  0
    9.6652   13.6238   20.6262 H   0  0  0  0  0  0  0  0  0  0  0  0
   10.9575   14.2711   19.9364 H   0  0  0  0  0  0  0  0  0  0  0  0
    7.0701   14.1582   14.9548 C   0  0  0  0  0  0  0  0  0  0  0  0
    7.1677   13.5108   14.2256 H   0  0  0  0  0  0  0  0  0  0  0  0
    7.2066   15.0644   14.6075 H   0  0  0  0  0  0  0  0  0  0  0  0
    6.1706   14.0868   15.3370 H   0  0  0  0  0  0  0  0  0  0  0  0
   11.0451   12.1891   20.0056 C   0  0  0  0  0  0  0  0  0  0  0  0
   11.6724   12.2298   20.7703 H   0  0  0  0  0  0  0  0  0  0  0  0
   10.3922   11.4659   20.1816 H   0  0  0  0  0  0  0  0  0  0  0  0
   12.7065   10.9361   18.8357 C   0  0  0  0  0  0  0  0  0  0  0  0
   13.0135   10.1783   19.9822 C   0  0  0  0  0  0  0  0  0  0  0  0
   12.5213   10.4251   20.7563 H   0  0  0  0  0  0  0  0  0  0  0  0
   13.9267    9.1119   20.1875 C   0  0  0  0  0  0  0  0  0  0  0  0
   14.8058    8.5460   19.0966 C   0  0  0  0  0  0  0  0  0  0  0  0
   15.3745    7.8401   19.4689 H   0  0  0  0  0  0  0  0  0  0  0  0
   15.3686    9.2587   18.7282 H   0  0  0  0  0  0  0  0  0  0  0  0
   14.2444    8.1724   18.3856 H   0  0  0  0  0  0  0  0  0  0  0  0
   13.4095    9.0190   22.4879 C   0  0  0  0  0  0  0  0  0  0  0  0
   13.4232   10.7464   17.5169 C   0  0  0  0  0  0  0  0  0  0  0  0
   13.0905   11.4003   16.8673 H   0  0  0  0  0  0  0  0  0  0  0  0
   13.2575    9.8403   17.1825 H   0  0  0  0  0  0  0  0  0  0  0  0
   14.3859   10.8758   17.6469 H   0  0  0  0  0  0  0  0  0  0  0  0
   12.1521    8.5116   22.8647 C   0  0  0  0  0  0  0  0  0  0  0  0
   11.5708    8.9335   24.0609 C   0  0  0  0  0  0  0  0  0  0  0  0
   10.7247    8.5868   24.3188 H   0  0  0  0  0  0  0  0  0  0  0  0
   12.2069    9.8456   24.8725 C   0  0  0  0  0  0  0  0  0  0  0  0
   11.8103   10.1146   25.6928 H   0  0  0  0  0  0  0  0  0  0  0  0
   13.4286   10.3676   24.4849 C   0  0  0  0  0  0  0  0  0  0  0  0
   13.8586   11.0039   25.0441 H   0  0  0  0  0  0  0  0  0  0  0  0
   14.0426    9.9849   23.2982 C   0  0  0  0  0  0  0  0  0  0  0  0
   11.4048    7.5485   21.9627 C   0  0  1  0  0  0  0  0  0  0  0  0
   12.0012    7.3212   21.1927 H   0  0  0  0  0  0  0  0  0  0  0  0
   11.0429    6.2535   22.6736 C   0  0  0  0  0  0  0  0  0  0  0  0
   11.8558    5.8351   23.0251 H   0  0  0  0  0  0  0  0  0  0  0  0
   10.6086    5.6438   22.0408 H   0  0  0  0  0  0  0  0  0  0  0  0
   10.4291    6.4475   23.4130 H   0  0  0  0  0  0  0  0  0  0  0  0
   10.1360    8.1996   21.4017 C   0  0  0  0  0  0  0  0  0  0  0  0
   10.3789    8.9977   20.8874 H   0  0  0  0  0  0  0  0  0  0  0  0
    9.5457    8.4543   22.1410 H   0  0  0  0  0  0  0  0  0  0  0  0
    9.6732    7.5630   20.8179 H   0  0  0  0  0  0  0  0  0  0  0  0
   16.4961   10.2805   23.7948 C   0  0  0  0  0  0  0  0  0  0  0  0
   16.5708    9.3078   23.8875 H   0  0  0  0  0  0  0  0  0  0  0  0
   16.3207   10.6798   24.6725 H   0  0  0  0  0  0  0  0  0  0  0  0
   17.3328   10.6398   23.4334 H   0  0  0  0  0  0  0  0  0  0  0  0
   15.2217   12.1192   22.6870 C   0  0  0  0  0  0  0  0  0  0  0  0
   14.4472   12.3188   22.1201 H   0  0  0  0  0  0  0  0  0  0  0  0
   16.0330   12.4749   22.2684 H   0  0  0  0  0  0  0  0  0  0  0  0
   15.0983   12.5344   23.5660 H   0  0  0  0  0  0  0  0  0  0  0  0
   15.3543   10.6120   22.8518 C   0  0  2  0  0  0  0  0  0  0  0  0
   15.5821   10.2295   21.9563 H   0  0  0  0  0  0  0  0  0  0  0  0
  1  5  1  0
  2 37  2  0
  3 49  1  0
  4 55  2  0
  5  6  2  0
  6  7  1  0
  7  8  1  0
  9  7  2  0
 10  9  1  0
 11  9  1  0
 12 11  1  0
 13  5  1  0
 14 13  1  0
 14 15  1  1
 16 14  1  0
 17 16  1  0
 18 16  1  0
 19 16  1  0
 20 14  1  0
 21 20  1  0
 22 20  1  0
 23 20  1  0
 24  6  1  0
 24 25  1  1
 26 24  1  0
 27 26  1  0
 28 26  1  0
 29 26  1  0
 30 24  1  0
 31 30  1  0
 32 30  1  0
 33 30  1  0
 34  1  1  0
 35 34  2  0
 36 35  1  0
 37 35  1  0
 38 37  1  0
 39 38  1  0
 40 38  1  0
 41 38  1  0
 42  2  1  0
 43 42  1  0
 44 42  1  0
 45 34  1  0
 46 45  1  0
 47 45  1  0
 48 45  1  0
 49 42  1  0
 50 49  1  0
 51 49  1  0
 52  3  1  0
 53 52  2  0
 54 53  1  0
 55 53  1  0
 56 55  1  0
 57 56  1  0
 58 56  1  0
 59 56  1  0
 60  4  1  0
 61 52  1  0
 62 61  1  0
 63 61  1  0
 64 61  1  0
 65 60  2  0
 66 65  1  0
 67 66  1  0
 68 66  2  0
 69 68  1  0
 70 68  1  0
 71 70  1  0
 72 60  1  0
 73 65  1  0
 73 74  1  6
 75 73  1  0
 76 75  1  0
 77 75  1  0
 78 75  1  0
 79 73  1  0
 80 79  1  0
 81 79  1  0
 82 79  1  0
 83 84  1  0
 85 83  1  0
 86 83  1  0
 87 88  1  0
 89 87  1  0
 90 87  1  0
 91 72  1  0
 91 92  1  6
 11 13  2  0
 70 72  2  0
 83 91  1  0
 87 91  1  0
M  CHG  2   1  -1   3  -1
M  END
$$$$
