BAHLUV
     RDKit          3D

173196  0  0  0  0  0  0  0  0999 V2000
    6.1923   10.5495    7.2848 O   0  0  1  0  0  0  0  0  0  0  0  0
    5.3150    9.0661    5.1564 O   0  0  0  0  0  0  0  0  0  0  0  0
    4.5752   11.1643    5.1717 O   0  0  0  0  0  0  0  0  0  0  0  0
    8.6756   11.1624    6.2932 O   0  0  0  0  0  0  0  0  0  0  0  0
    6.9804   12.0875    5.1840 O   0  0  0  0  0  0  0  0  0  0  0  0
    5.2049   13.0644    6.8415 O   0  0  0  0  0  0  0  0  0  0  0  0
    5.5149   12.5371    8.9857 O   0  0  0  0  0  0  0  0  0  0  0  0
    8.3436   11.1400    8.8953 O   0  0  0  0  0  0  0  0  0  0  0  0
    6.5502   10.4166    9.9913 O   0  0  0  0  0  0  0  0  0  0  0  0
    4.0951   10.3966    9.0119 O   0  0  0  0  0  0  0  0  0  0  0  0
    4.0162    8.9221    7.3569 O   0  0  0  0  0  0  0  0  0  0  0  0
    8.3304    8.9004    7.5909 O   0  0  0  0  0  0  0  0  0  0  0  0
    6.4066    7.8395    7.2612 O   0  0  0  0  0  0  0  0  0  0  0  0
    4.6108   10.0041    4.6653 C   0  0  0  0  0  0  0  0  0  0  0  0
    3.7639    9.7237    3.4408 C   0  0  1  0  0  0  0  0  0  0  0  0
    3.4580    9.6393    8.2403 C   0  0  0  0  0  0  0  0  0  0  0  0
    1.9487    9.6634    8.3090 C   0  0  1  0  0  0  0  0  0  0  0  0
    1.5177   10.7282    7.2810 C   0  0  0  0  0  0  0  0  0  0  0  0
    1.9027   11.6067    7.5261 H   0  0  0  0  0  0  0  0  0  0  0  0
    1.8528   10.4824    6.3825 H   0  0  0  0  0  0  0  0  0  0  0  0
    1.3495    8.3100    7.9141 C   0  0  0  0  0  0  0  0  0  0  0  0
    1.6296    7.6171    8.5631 H   0  0  0  0  0  0  0  0  0  0  0  0
    1.6778    8.0466    7.0181 H   0  0  0  0  0  0  0  0  0  0  0  0
    1.4361   10.0716    9.6903 C   0  0  0  0  0  0  0  0  0  0  0  0
    1.8225   10.9467    9.9451 H   0  0  0  0  0  0  0  0  0  0  0  0
    1.7172    9.4016   10.3626 H   0  0  0  0  0  0  0  0  0  0  0  0
   -0.0961   10.1690    9.6643 C   0  0  1  0  0  0  0  0  0  0  0  0
   -0.4271   10.4312   10.5709 H   0  0  0  0  0  0  0  0  0  0  0  0
   -0.5252   11.2188    8.6468 C   0  0  0  0  0  0  0  0  0  0  0  0
   -0.1560   12.1018    8.8997 H   0  0  0  0  0  0  0  0  0  0  0  0
   -1.5126   11.2880    8.6322 H   0  0  0  0  0  0  0  0  0  0  0  0
   -0.0117   10.8191    7.2584 C   0  0  2  0  0  0  0  0  0  0  0  0
   -0.2947   11.5054    6.5884 H   0  0  0  0  0  0  0  0  0  0  0  0
   -0.6051    9.4706    6.8830 C   0  0  0  0  0  0  0  0  0  0  0  0
   -0.2934    9.2089    5.9806 H   0  0  0  0  0  0  0  0  0  0  0  0
   -1.5927    9.5352    6.8620 H   0  0  0  0  0  0  0  0  0  0  0  0
   -0.1825    8.4170    7.8961 C   0  0  2  0  0  0  0  0  0  0  0  0
   -0.5752    7.5334    7.6414 H   0  0  0  0  0  0  0  0  0  0  0  0
   -0.6880    8.8189    9.2815 C   0  0  0  0  0  0  0  0  0  0  0  0
   -1.6763    8.8761    9.2742 H   0  0  0  0  0  0  0  0  0  0  0  0
   -0.4221    8.1355    9.9467 H   0  0  0  0  0  0  0  0  0  0  0  0
    5.2320   13.3597    8.0636 C   0  0  0  0  0  0  0  0  0  0  0  0
    4.8610   14.7669    8.4937 C   0  0  1  0  0  0  0  0  0  0  0  0
    4.8841   15.7554    7.3174 C   0  0  0  0  0  0  0  0  0  0  0  0
    4.2606   15.4506    6.6114 H   0  0  0  0  0  0  0  0  0  0  0  0
    5.7946   15.7945    6.9306 H   0  0  0  0  0  0  0  0  0  0  0  0
    3.4301   14.7034    9.0807 C   0  0  0  0  0  0  0  0  0  0  0  0
    2.7953   14.3962    8.3859 H   0  0  0  0  0  0  0  0  0  0  0  0
    3.4035   14.0590    9.8319 H   0  0  0  0  0  0  0  0  0  0  0  0
    5.8250   15.2404    9.5947 C   0  0  0  0  0  0  0  0  0  0  0  0
    5.7985   14.6088   10.3566 H   0  0  0  0  0  0  0  0  0  0  0  0
    6.7500   15.2617    9.2426 H   0  0  0  0  0  0  0  0  0  0  0  0
    5.4194   16.6409   10.0692 C   0  0  1  0  0  0  0  0  0  0  0  0
    6.0583   16.9498   10.7738 H   0  0  0  0  0  0  0  0  0  0  0  0
    5.4474   17.6239    8.8910 C   0  0  0  0  0  0  0  0  0  0  0  0
    5.1927   18.5283    9.2029 H   0  0  0  0  0  0  0  0  0  0  0  0
    6.3624   17.6717    8.5160 H   0  0  0  0  0  0  0  0  0  0  0  0
    4.4682   17.1525    7.8113 C   0  0  2  0  0  0  0  0  0  0  0  0
    4.4807   17.7953    7.0453 H   0  0  0  0  0  0  0  0  0  0  0  0
    3.0510   17.0794    8.3962 C   0  0  0  0  0  0  0  0  0  0  0  0
    2.7692   17.9781    8.7008 H   0  0  0  0  0  0  0  0  0  0  0  0
    2.4175   16.7772    7.6979 H   0  0  0  0  0  0  0  0  0  0  0  0
    3.0234   16.1007    9.5777 C   0  0  2  0  0  0  0  0  0  0  0  0
    2.0998   16.0638    9.9595 H   0  0  0  0  0  0  0  0  0  0  0  0
    4.0067   16.5770   10.6578 C   0  0  0  0  0  0  0  0  0  0  0  0
    3.7386   17.4726   10.9836 H   0  0  0  0  0  0  0  0  0  0  0  0
    3.9911   15.9510   11.4247 H   0  0  0  0  0  0  0  0  0  0  0  0
    7.7236   10.8980    9.9733 C   0  0  0  0  0  0  0  0  0  0  0  0
    8.3614   11.2368   11.3017 C   0  0  1  0  0  0  0  0  0  0  0  0
    8.2568   10.0340   12.2657 C   0  0  0  0  0  0  0  0  0  0  0  0
    7.3077    9.7733   12.3726 H   0  0  0  0  0  0  0  0  0  0  0  0
    8.7492    9.2615   11.8903 H   0  0  0  0  0  0  0  0  0  0  0  0
    9.8303   11.6285   11.1432 C   0  0  0  0  0  0  0  0  0  0  0  0
    9.9059   12.3947   10.5208 H   0  0  0  0  0  0  0  0  0  0  0  0
   10.3386   10.8694   10.7617 H   0  0  0  0  0  0  0  0  0  0  0  0
    7.5857   12.4362   11.8965 C   0  0  0  0  0  0  0  0  0  0  0  0
    7.6562   13.2145   11.2886 H   0  0  0  0  0  0  0  0  0  0  0  0
    6.6284   12.2021   11.9897 H   0  0  0  0  0  0  0  0  0  0  0  0
    8.1672   12.7978   13.2710 C   0  0  2  0  0  0  0  0  0  0  0  0
    7.6588   13.5683   13.6554 H   0  0  0  0  0  0  0  0  0  0  0  0
    9.6370   13.1907   13.1014 C   0  0  0  0  0  0  0  0  0  0  0  0
   10.0205   13.4392   13.9796 H   0  0  0  0  0  0  0  0  0  0  0  0
    9.7068   13.9742   12.5003 H   0  0  0  0  0  0  0  0  0  0  0  0
   10.4190   12.0113   12.5090 C   0  0  1  0  0  0  0  0  0  0  0  0
   11.3791   12.2686   12.3988 H   0  0  0  0  0  0  0  0  0  0  0  0
   10.3160   10.8126   13.4580 C   0  0  0  0  0  0  0  0  0  0  0  0
   10.7023   11.0497   14.3381 H   0  0  0  0  0  0  0  0  0  0  0  0
   10.8298   10.0506   13.0900 H   0  0  0  0  0  0  0  0  0  0  0  0
    8.8469   10.4103   13.6300 C   0  0  1  0  0  0  0  0  0  0  0  0
    8.7844    9.6278   14.2491 H   0  0  0  0  0  0  0  0  0  0  0  0
    8.0500   11.5894   14.2092 C   0  0  0  0  0  0  0  0  0  0  0  0
    7.0988   11.3339   14.3087 H   0  0  0  0  0  0  0  0  0  0  0  0
    8.4028   11.8247   15.1037 H   0  0  0  0  0  0  0  0  0  0  0  0
    7.5993    7.8712    7.6472 C   0  0  0  0  0  0  0  0  0  0  0  0
    8.2020    6.6207    8.2490 C   0  0  2  0  0  0  0  0  0  0  0  0
    7.2721    5.4148    8.1014 C   0  0  0  0  0  0  0  0  0  0  0  0
    7.1073    5.2355    7.1417 H   0  0  0  0  0  0  0  0  0  0  0  0
    6.4027    5.6085    8.5334 H   0  0  0  0  0  0  0  0  0  0  0  0
    8.4395    6.8929    9.7522 C   0  0  0  0  0  0  0  0  0  0  0  0
    9.0393    7.6730    9.8603 H   0  0  0  0  0  0  0  0  0  0  0  0
    7.5786    7.1006   10.1947 H   0  0  0  0  0  0  0  0  0  0  0  0
    9.5569    6.3111    7.5815 C   0  0  0  0  0  0  0  0  0  0  0  0
    9.4220    6.1352    6.6166 H   0  0  0  0  0  0  0  0  0  0  0  0
   10.1604    7.0907    7.6724 H   0  0  0  0  0  0  0  0  0  0  0  0
    7.9132    4.1825    8.7561 C   0  0  2  0  0  0  0  0  0  0  0  0
    7.3036    3.3969    8.6497 H   0  0  0  0  0  0  0  0  0  0  0  0
    8.1303    4.4557   10.2447 C   0  0  0  0  0  0  0  0  0  0  0  0
    8.5214    3.6566   10.6791 H   0  0  0  0  0  0  0  0  0  0  0  0
    7.2629    4.6518   10.6799 H   0  0  0  0  0  0  0  0  0  0  0  0
    9.0761    5.6516   10.4084 C   0  0  1  0  0  0  0  0  0  0  0  0
    9.2267    5.8281   11.3810 H   0  0  0  0  0  0  0  0  0  0  0  0
   10.4071    5.3528    9.7338 C   0  0  0  0  0  0  0  0  0  0  0  0
   10.8269    4.5645   10.1611 H   0  0  0  0  0  0  0  0  0  0  0  0
   11.0169    6.1248    9.8448 H   0  0  0  0  0  0  0  0  0  0  0  0
   10.1945    5.0782    8.2514 C   0  0  1  0  0  0  0  0  0  0  0  0
   11.0737    4.8793    7.8184 H   0  0  0  0  0  0  0  0  0  0  0  0
    9.2556    3.8768    8.0822 C   0  0  0  0  0  0  0  0  0  0  0  0
    9.1138    3.6949    7.1195 H   0  0  0  0  0  0  0  0  0  0  0  0
    9.6619    3.0731    8.4932 H   0  0  0  0  0  0  0  0  0  0  0  0
    8.2192   11.8432    5.3354 C   0  0  0  0  0  0  0  0  0  0  0  0
    9.1639   12.4332    4.3103 C   0  0  2  0  0  0  0  0  0  0  0  0
   10.6236   12.0637    4.6091 C   0  0  0  0  0  0  0  0  0  0  0  0
   10.7264   11.0792    4.5983 H   0  0  0  0  0  0  0  0  0  0  0  0
   10.8713   12.3897    5.5106 H   0  0  0  0  0  0  0  0  0  0  0  0
    9.0154   13.9688    4.3308 C   0  0  0  0  0  0  0  0  0  0  0  0
    8.0785   14.2163    4.1282 H   0  0  0  0  0  0  0  0  0  0  0  0
    9.2384   14.3137    5.2316 H   0  0  0  0  0  0  0  0  0  0  0  0
    8.7966   11.9239    2.9011 C   0  0  0  0  0  0  0  0  0  0  0  0
    8.8801   10.9381    2.8700 H   0  0  0  0  0  0  0  0  0  0  0  0
    7.8579   12.1614    2.6946 H   0  0  0  0  0  0  0  0  0  0  0  0
    9.7310   12.5556    1.8601 C   0  0  1  0  0  0  0  0  0  0  0  0
    9.4864   12.2209    0.9500 H   0  0  0  0  0  0  0  0  0  0  0  0
    9.5803   14.0791    1.8963 C   0  0  0  0  0  0  0  0  0  0  0  0
   10.1690   14.4900    1.2148 H   0  0  0  0  0  0  0  0  0  0  0  0
    8.6449   14.3279    1.6881 H   0  0  0  0  0  0  0  0  0  0  0  0
    9.9566   14.5979    3.2859 C   0  0  2  0  0  0  0  0  0  0  0  0
    9.8620   15.5932    3.3077 H   0  0  0  0  0  0  0  0  0  0  0  0
   11.4091   14.2153    3.5896 C   0  0  0  0  0  0  0  0  0  0  0  0
   12.0102   14.6236    2.9171 H   0  0  0  0  0  0  0  0  0  0  0  0
   11.6657   14.5574    4.4824 H   0  0  0  0  0  0  0  0  0  0  0  0
   11.5554   12.6930    3.5575 C   0  0  2  0  0  0  0  0  0  0  0  0
   12.5026   12.4456    3.7619 H   0  0  0  0  0  0  0  0  0  0  0  0
   11.1808   12.1677    2.1695 C   0  0  0  0  0  0  0  0  0  0  0  0
   11.2777   11.1827    2.1455 H   0  0  0  0  0  0  0  0  0  0  0  0
   11.7854   12.5560    1.4887 H   0  0  0  0  0  0  0  0  0  0  0  0
    5.5429    9.1122    6.7864 Be  0  0  2  0  0  4  0  0  0  0  0  0
    7.8320   10.4486    7.4719 Be  0  0  1  0  0  4  0  0  0  0  0  0
    5.7555   11.6817    6.1697 Be  0  0  2  0  0  4  0  0  0  0  0  0
    5.5957   10.9192    8.7800 Be  0  0  2  0  0  4  0  0  0  0  0  0
    4.6621    9.2717    2.3122 C   0  0  0  0  0  0  0  0  0  0  0  0
    5.1722    8.4704    2.5921 H   0  0  0  0  0  0  0  0  0  0  0  0
    5.3099    9.9885    2.0939 H   0  0  0  0  0  0  0  0  0  0  0  0
    2.7974    8.4969    3.7935 C   0  0  0  0  0  0  0  0  0  0  0  0
    3.3341    7.7067    4.0539 H   0  0  0  0  0  0  0  0  0  0  0  0
    2.2077    8.7371    4.5516 H   0  0  0  0  0  0  0  0  0  0  0  0
    2.9047   10.9056    3.0612 C   0  0  0  0  0  0  0  0  0  0  0  0
    3.4801   11.6870    2.8645 H   0  0  0  0  0  0  0  0  0  0  0  0
    2.3100   11.1422    3.8164 H   0  0  0  0  0  0  0  0  0  0  0  0
    2.0583   10.5604    1.8235 C   0  0  1  0  0  0  0  0  0  0  0  0
    1.5134   11.3564    1.5600 H   0  0  0  0  0  0  0  0  0  0  0  0
    2.9974   10.1801    0.6713 C   0  0  0  0  0  0  0  0  0  0  0  0
    3.6060   10.9346    0.4719 H   0  0  0  0  0  0  0  0  0  0  0  0
    2.4674    9.9858   -0.1422 H   0  0  0  0  0  0  0  0  0  0  0  0
    3.8158    8.9403    1.0676 C   0  0  2  0  0  0  0  0  0  0  0  0
    4.4174    8.6790    0.3123 H   0  0  0  0  0  0  0  0  0  0  0  0
    2.8760    7.7785    1.4028 C   0  0  0  0  0  0  0  0  0  0  0  0
    2.3377    7.5448    0.6056 H   0  0  0  0  0  0  0  0  0  0  0  0
    3.4071    6.9836    1.6604 H   0  0  0  0  0  0  0  0  0  0  0  0
    1.9510    8.1716    2.5503 C   0  0  2  0  0  0  0  0  0  0  0  0
    1.3329    7.4128    2.7562 H   0  0  0  0  0  0  0  0  0  0  0  0
    1.1337    9.4020    2.1575 C   0  0  0  0  0  0  0  0  0  0  0  0
    0.5702    9.1897    1.3720 H   0  0  0  0  0  0  0  0  0  0  0  0
    0.5377    9.6577    2.9051 H   0  0  0  0  0  0  0  0  0  0  0  0
  1146  1  6
  2 14  8  0
  3 14  8  0
  4120  8  0
  5120  8  0
  6 42  8  0
  7 42  8  0
  8 68  8  0
  9 68  8  0
 10 16  8  0
 11 16  8  0
 12 94  8  0
 13 94  8  0
 15 14  1  1
 15150  1  0
 17 16  1  1
 17 18  1  0
 18 19  1  0
 20 18  1  0
 21 17  1  0
 22 21  1  0
 23 21  1  0
 24 17  1  0
 25 24  1  0
 26 24  1  0
 27 24  1  0
 27 28  1  1
 29 27  1  0
 30 29  1  0
 31 29  1  0
 32 18  1  0
 32 33  1  6
 34 32  1  0
 35 34  1  0
 36 34  1  0
 37 21  1  0
 37 38  1  6
 39 27  1  0
 40 39  1  0
 41 39  1  0
 43 42  1  6
 43 44  1  0
 44 45  1  0
 46 44  1  0
 47 43  1  0
 48 47  1  0
 49 47  1  0
 50 43  1  0
 51 50  1  0
 52 50  1  0
 53 50  1  0
 53 54  1  1
 55 53  1  0
 56 55  1  0
 57 55  1  0
 58 44  1  0
 58 59  1  6
 60 58  1  0
 61 60  1  0
 62 60  1  0
 63 47  1  0
 63 64  1  1
 65 53  1  0
 66 65  1  0
 67 65  1  0
 69 68  1  6
 69 70  1  0
 70 71  1  0
 72 70  1  0
 73 69  1  0
 74 73  1  0
 75 73  1  0
 76 69  1  0
 77 76  1  0
 78 76  1  0
 79 76  1  0
 79 80  1  1
 81 79  1  0
 82 81  1  0
 83 81  1  0
 84 73  1  0
 84 85  1  6
 86 84  1  0
 87 86  1  0
 88 86  1  0
 89 70  1  0
 89 90  1  1
 91 79  1  0
 92 91  1  0
 93 91  1  0
 95 94  1  6
 95 96  1  0
 96 97  1  0
 98 96  1  0
 99 95  1  0
100 99  1  0
101 99  1  0
102 95  1  0
103102  1  0
104102  1  0
105 96  1  0
105106  1  1
107105  1  0
108107  1  0
109107  1  0
110 99  1  0
110111  1  1
112110  1  0
113112  1  0
114112  1  0
115102  1  0
115116  1  6
117105  1  0
118117  1  0
119117  1  0
121120  1  1
121122  1  0
122123  1  0
124122  1  0
125121  1  0
126125  1  0
127125  1  0
128121  1  0
129128  1  0
130128  1  0
131128  1  0
131132  1  6
133131  1  0
134133  1  0
135133  1  0
136125  1  0
136137  1  6
138136  1  0
139138  1  0
140138  1  0
141122  1  0
141142  1  1
143131  1  0
144143  1  0
145143  1  0
146  2  1  6
147  1  1  0
148  1  1  0
149  1  1  0
150151  1  0
152150  1  0
153 15  1  0
154153  1  0
155153  1  0
156 15  1  0
157156  1  0
158156  1  0
159156  1  0
159160  1  6
161159  1  0
162161  1  0
163161  1  0
164150  1  0
164165  1  6
166164  1  0
167166  1  0
168166  1  0
169153  1  0
169170  1  1
171159  1  0
172171  1  0
173171  1  0
148  3  1  6
147  4  1  6
  5148  1  0
  6148  1  0
149  7  1  6
  8147  1  0
  9149  1  0
 10149  1  0
 11146  1  0
 12147  1  0
 13146  1  0
 29 32  1  0
 34 37  1  0
 37 39  1  0
 55 58  1  0
 60 63  1  0
 63 65  1  0
 81 84  1  0
 86 89  1  0
 89 91  1  0
107110  1  0
112115  1  0
115117  1  0
133136  1  0
138141  1  0
141143  1  0
161164  1  0
166169  1  0
169171  1  0
M  END
$$$$
