ABUHEO
     RDKit          3D

 51 55  0  0  0  0  0  0  0  0999 V2000
   -0.7816   10.5871    7.6778 C   0  0  0  0  0  0  0  0  0  0  0  0
    0.3157   11.2456    7.0252 C   0  0  0  0  0  0  0  0  0  0  0  0
    0.3119   12.1944    6.9773 H   0  0  0  0  0  0  0  0  0  0  0  0
    1.3492   10.5796    6.4798 C   0  0  0  0  0  0  0  0  0  0  0  0
    2.5109   11.3072    5.8619 C   0  0  0  0  0  0  0  0  0  0  0  0
    2.3114   12.2660    5.8212 H   0  0  0  0  0  0  0  0  0  0  0  0
    2.6648   10.9669    4.9559 H   0  0  0  0  0  0  0  0  0  0  0  0
    3.3131   11.1633    6.4058 H   0  0  0  0  0  0  0  0  0  0  0  0
    1.1773    6.3549    6.6408 C   0  0  0  0  0  0  0  0  0  0  0  0
    2.2924    6.9573    6.0545 C   0  0  0  0  0  0  0  0  0  0  0  0
    2.9943    6.4254    5.6984 H   0  0  0  0  0  0  0  0  0  0  0  0
    2.3631    8.3242    5.9992 C   0  0  0  0  0  0  0  0  0  0  0  0
    3.1209    8.7329    5.5978 H   0  0  0  0  0  0  0  0  0  0  0  0
    1.3465    9.1349    6.5193 C   0  0  0  0  0  0  0  0  0  0  0  0
    0.2511    8.4930    7.1041 C   0  0  0  0  0  0  0  0  0  0  0  0
    0.1341    7.1088    7.1751 C   0  0  0  0  0  0  0  0  0  0  0  0
   -0.9927    6.3992    7.7504 C   0  0  0  0  0  0  0  0  0  0  0  0
   -1.6919    6.8886    8.1670 H   0  0  0  0  0  0  0  0  0  0  0  0
   -1.0581    5.0771    7.7015 C   0  0  0  0  0  0  0  0  0  0  0  0
   -1.8170    4.6523    8.0840 H   0  0  0  0  0  0  0  0  0  0  0  0
   -0.0101    4.2164    7.0804 C   0  0  1  0  0  0  0  0  0  0  0  0
   -0.6122    2.3467    8.6848 C   0  0  0  0  0  0  0  0  0  0  0  0
   -1.3213    2.1288    8.0444 H   0  0  0  0  0  0  0  0  0  0  0  0
   -0.9700    2.9378    9.3798 H   0  0  0  0  0  0  0  0  0  0  0  0
   -0.2799    1.5218    9.0971 H   0  0  0  0  0  0  0  0  0  0  0  0
    0.5345    3.0506    7.9564 C   0  0  2  0  0  0  0  0  0  0  0  0
    1.5941    3.4975    8.9918 C   0  0  0  0  0  0  0  0  0  0  0  0
    1.8697    2.7264    9.5304 H   0  0  0  0  0  0  0  0  0  0  0  0
    1.2104    4.1839    9.5765 H   0  0  0  0  0  0  0  0  0  0  0  0
    2.3730    3.8645    8.5242 H   0  0  0  0  0  0  0  0  0  0  0  0
    1.0415    2.1317    6.8744 C   0  0  0  0  0  0  0  0  0  0  0  0
    1.9630    1.1128    6.9178 C   0  0  0  0  0  0  0  0  0  0  0  0
    2.4256    0.9152    7.7240 H   0  0  0  0  0  0  0  0  0  0  0  0
    2.2077    0.3751    5.7649 C   0  0  0  0  0  0  0  0  0  0  0  0
    2.8425   -0.3315    5.7806 H   0  0  0  0  0  0  0  0  0  0  0  0
    1.5355    0.6656    4.6056 C   0  0  0  0  0  0  0  0  0  0  0  0
    1.7053    0.1476    3.8273 H   0  0  0  0  0  0  0  0  0  0  0  0
    0.6144    1.6984    4.5456 C   0  0  0  0  0  0  0  0  0  0  0  0
    0.1561    1.8970    3.7375 H   0  0  0  0  0  0  0  0  0  0  0  0
    0.3810    2.4309    5.6923 C   0  0  0  0  0  0  0  0  0  0  0  0
   -1.0140    4.2766    4.7689 C   0  0  0  0  0  0  0  0  0  0  0  0
   -0.3711    4.2534    4.0169 H   0  0  0  0  0  0  0  0  0  0  0  0
   -1.1412    5.2221    5.0339 H   0  0  0  0  0  0  0  0  0  0  0  0
   -2.3492    3.6952    4.3120 C   0  0  0  0  0  0  0  0  0  0  0  0
   -2.2180    2.7703    4.0158 H   0  0  0  0  0  0  0  0  0  0  0  0
   -2.7011    4.2294    3.5701 H   0  0  0  0  0  0  0  0  0  0  0  0
   -2.9850    3.7123    5.0577 H   0  0  0  0  0  0  0  0  0  0  0  0
   -0.4726    3.5332    5.8872 N   0  0  0  0  0  0  0  0  0  0  0  0
   -1.7115   11.1238    8.2373 O   0  0  0  0  0  0  0  0  0  0  0  0
   -0.7889    9.2063    7.6603 O   0  0  0  0  0  0  0  0  0  0  0  0
    1.1827    5.0019    6.7126 O   0  0  0  0  0  0  0  0  0  0  0  0
  1  2  1  0
  2  3  1  0
  4  2  2  0
  5  4  1  0
  6  5  1  0
  7  5  1  0
  8  5  1  0
  9 10  1  0
 10 11  1  0
 12 10  2  0
 13 12  1  0
 14  4  1  0
 15 14  2  0
 16  9  2  0
 17 16  1  0
 18 17  1  0
 19 17  2  0
 20 19  1  0
 21 19  1  0
 22 23  1  0
 24 22  1  0
 25 22  1  0
 26 21  1  0
 26 27  1  1
 28 27  1  0
 29 27  1  0
 30 27  1  0
 31 26  1  0
 32 31  1  0
 33 32  1  0
 34 32  2  0
 35 34  1  0
 36 34  1  0
 37 36  1  0
 38 36  2  0
 39 38  1  0
 40 31  2  0
 41 42  1  0
 43 41  1  0
 44 41  1  0
 45 44  1  0
 46 44  1  0
 47 44  1  0
 48 21  1  0
 49  1  2  0
 50  1  1  0
 51  9  1  0
 12 14  1  0
 15 16  1  0
 15 50  1  0
 21 51  1  6
 22 26  1  0
 38 40  1  0
 40 48  1  0
 41 48  1  0
M  END
$$$$
