AKEPAK01
     RDKit          3D

 16 16  0  0  0  0  0  0  0  0999 V2000
    3.8647   -0.4418   18.8378 C   0  0  0  0  0  0  0  0  0  0  0  0
    2.8663   -1.8668   20.4058 C   0  0  0  0  0  0  0  0  0  0  0  0
    2.3900   -1.9632   21.1999 H   0  0  0  0  0  0  0  0  0  0  0  0
    3.3208   -3.0137   19.6726 C   0  0  0  0  0  0  0  0  0  0  0  0
    3.1253   -3.8743   19.9489 H   0  0  0  0  0  0  0  0  0  0  0  0
    4.0692   -2.7601   18.5107 C   0  0  0  0  0  0  0  0  0  0  0  0
    4.5636   -3.8429   17.6308 C   0  0  0  0  0  0  0  0  0  0  0  0
    5.5158   -3.7631   17.5316 H   0  0  0  0  0  0  0  0  0  0  0  0
    4.1495   -3.7579   16.7634 H   0  0  0  0  0  0  0  0  0  0  0  0
    4.3457   -4.6913   18.0076 H   0  0  0  0  0  0  0  0  0  0  0  0
    3.1384   -0.7227   19.9546 N   0  0  0  0  0  0  0  0  0  0  0  0
    2.8299   -0.0535   20.3866 H   0  0  0  0  0  0  0  0  0  0  0  0
    4.3087   -1.5868   18.0821 N   0  0  0  0  0  0  0  0  0  0  0  0
    4.0996    0.7201   18.4205 N   0  0  0  0  0  0  0  0  0  0  0  0
    3.7912    1.3962   18.8570 H   0  0  0  0  0  0  0  0  0  0  0  0
    4.5639    0.8393   17.7109 H   0  0  0  0  0  0  0  0  0  0  0  0
  1 11  2  0
  2  3  1  0
  4  2  2  0
  5  4  1  0
  6  4  1  0
  7  6  1  0
  8  7  1  0
  9  7  1  0
 10  7  1  0
 11  2  1  0
 12 11  1  0
 13  1  1  0
 14  1  1  0
 15 14  1  0
 16 14  1  0
  6 13  2  0
M  CHG  1  11   1
M  END
$$$$
