BAHXIV
     RDKit          3D

164172  0  0  0  0  0  0  0  0999 V2000
    7.1210   16.8538    8.6712 P   0  0  1  0  0  0  0  0  0  0  0  0
    7.6149   16.8717    9.9484 H   0  0  0  0  0  0  0  0  0  0  0  0
    3.9825   11.2620    7.1688 P   0  0  1  0  0  0  0  0  0  0  0  0
    8.4604   16.9882    7.8250 O   0  0  0  0  0  0  0  0  0  0  0  0
    6.0766   17.8488    8.4991 O   0  0  0  0  0  0  0  0  0  0  0  0
    3.6418   11.1338    8.7240 O   0  0  0  0  0  0  0  0  0  0  0  0
    5.4003   11.3642    6.8260 O   0  0  0  0  0  0  0  0  0  0  0  0
    2.6472   14.2026    4.7467 O   0  0  0  0  0  0  0  0  0  0  0  0
    1.6878   12.4947    6.8894 O   0  0  0  0  0  0  0  0  0  0  0  0
    6.8011   15.3109    8.2174 N   0  0  0  0  0  0  0  0  0  0  0  0
    3.1234    9.9717    6.6884 N   0  0  0  0  0  0  0  0  0  0  0  0
    2.6594   11.9320    4.3268 N   0  0  0  0  0  0  0  0  0  0  0  0
    3.4213   13.9170    7.4893 N   0  0  0  0  0  0  0  0  0  0  0  0
    9.8779   15.6163    6.3252 C   0  0  0  0  0  0  0  0  0  0  0  0
    8.7713   15.8048    7.1201 C   0  0  0  0  0  0  0  0  0  0  0  0
    7.8077   14.8226    7.3345 C   0  0  0  0  0  0  0  0  0  0  0  0
    7.9023   13.5935    6.7410 C   0  0  0  0  0  0  0  0  0  0  0  0
    7.2268   12.9375    6.8651 H   0  0  0  0  0  0  0  0  0  0  0  0
    9.0300   13.3296    5.9415 C   0  0  0  0  0  0  0  0  0  0  0  0
    9.9695   14.3400    5.7692 C   0  0  0  0  0  0  0  0  0  0  0  0
   10.7298   14.1459    5.2361 H   0  0  0  0  0  0  0  0  0  0  0  0
   10.9320   16.7209    6.1161 C   0  0  2  0  0  0  0  0  0  0  0  0
   11.6018   17.0414    7.4648 C   0  0  2  0  0  0  0  0  0  0  0  0
   12.3344   17.6786    7.3246 H   0  0  0  0  0  0  0  0  0  0  0  0
   11.9572   16.2176    7.8576 H   0  0  0  0  0  0  0  0  0  0  0  0
   10.9409   17.4335    8.0736 H   0  0  0  0  0  0  0  0  0  0  0  0
   10.2602   17.9726    5.5440 C   0  0  2  0  0  0  0  0  0  0  0  0
    9.6029   18.3120    6.1873 H   0  0  0  0  0  0  0  0  0  0  0  0
    9.8091   17.7464    4.7031 H   0  0  0  0  0  0  0  0  0  0  0  0
   10.9375   18.6588    5.3763 H   0  0  0  0  0  0  0  0  0  0  0  0
   12.0007   16.2685    5.1327 C   0  0  2  0  0  0  0  0  0  0  0  0
   12.6165   17.0112    4.9558 H   0  0  0  0  0  0  0  0  0  0  0  0
   11.5766   15.9914    4.2941 H   0  0  0  0  0  0  0  0  0  0  0  0
   12.4976   15.5145    5.5141 H   0  0  0  0  0  0  0  0  0  0  0  0
    9.1726   11.9591    5.3051 C   0  0  2  0  0  0  0  0  0  0  0  0
   10.4871   11.8046    4.5469 C   0  0  2  0  0  0  0  0  0  0  0  0
   10.5149   12.4493    3.8070 H   0  0  0  0  0  0  0  0  0  0  0  0
   10.5536   10.8959    4.1884 H   0  0  0  0  0  0  0  0  0  0  0  0
   11.2360   11.9742    5.1534 H   0  0  0  0  0  0  0  0  0  0  0  0
    7.9962   11.6915    4.3699 C   0  0  2  0  0  0  0  0  0  0  0  0
    7.1568   11.7650    4.8731 H   0  0  0  0  0  0  0  0  0  0  0  0
    8.0733   10.7885    3.9977 H   0  0  0  0  0  0  0  0  0  0  0  0
    8.0006   12.3475    3.6439 H   0  0  0  0  0  0  0  0  0  0  0  0
    9.1600   10.8752    6.4194 C   0  0  2  0  0  0  0  0  0  0  0  0
    9.9240   11.0128    7.0167 H   0  0  0  0  0  0  0  0  0  0  0  0
    9.2192    9.9873    6.0127 H   0  0  0  0  0  0  0  0  0  0  0  0
    8.3263   10.9449    6.9317 H   0  0  0  0  0  0  0  0  0  0  0  0
    5.5600   14.5794    8.4499 C   0  0  2  0  0  0  0  0  0  0  0  0
    5.1369   14.9112    9.2821 H   0  0  0  0  0  0  0  0  0  0  0  0
    5.7657   13.6199    8.5745 H   0  0  0  0  0  0  0  0  0  0  0  0
    4.5917   14.7359    7.3037 C   0  0  2  0  0  0  0  0  0  0  0  0
    4.3197   15.6841    7.2304 H   0  0  0  0  0  0  0  0  0  0  0  0
    5.0397   14.4795    6.4584 H   0  0  0  0  0  0  0  0  0  0  0  0
    3.1106   12.7509    6.6491 C   0  0  1  0  0  0  0  0  0  0  0  0
    2.8149   10.0231    8.9674 C   0  0  0  0  0  0  0  0  0  0  0  0
    2.3535    9.6461   10.2060 C   0  0  0  0  0  0  0  0  0  0  0  0
    1.5837    8.4887   10.1897 C   0  0  0  0  0  0  0  0  0  0  0  0
    1.2501    8.1720   11.0214 H   0  0  0  0  0  0  0  0  0  0  0  0
    1.2620    7.7497    9.0434 C   0  0  0  0  0  0  0  0  0  0  0  0
    1.7384    8.2342    7.8163 C   0  0  0  0  0  0  0  0  0  0  0  0
    1.5193    7.7817    7.0098 H   0  0  0  0  0  0  0  0  0  0  0  0
    2.5059    9.3369    7.7816 C   0  0  0  0  0  0  0  0  0  0  0  0
    2.6720   10.4492   11.4740 C   0  0  2  0  0  0  0  0  0  0  0  0
    2.0354    9.7800   12.7078 C   0  0  2  0  0  0  0  0  0  0  0  0
    1.0630    9.7347   12.5883 H   0  0  0  0  0  0  0  0  0  0  0  0
    2.2423   10.3078   13.5073 H   0  0  0  0  0  0  0  0  0  0  0  0
    2.3944    8.8751   12.8112 H   0  0  0  0  0  0  0  0  0  0  0  0
    2.1333   11.8536   11.3407 C   0  0  2  0  0  0  0  0  0  0  0  0
    2.5529   12.2947   10.5733 H   0  0  0  0  0  0  0  0  0  0  0  0
    2.3324   12.3588   12.1587 H   0  0  0  0  0  0  0  0  0  0  0  0
    1.1620   11.8196   11.2075 H   0  0  0  0  0  0  0  0  0  0  0  0
    4.1854   10.5114   11.6785 C   0  0  2  0  0  0  0  0  0  0  0  0
    4.5351    9.6065   11.8186 H   0  0  0  0  0  0  0  0  0  0  0  0
    4.3870   11.0618   12.4642 H   0  0  0  0  0  0  0  0  0  0  0  0
    4.6067   10.9072   10.8881 H   0  0  0  0  0  0  0  0  0  0  0  0
    0.4495    6.4584    9.1029 C   0  0  2  0  0  0  0  0  0  0  0  0
    1.2982    5.3292    8.5010 C   0  0  2  0  0  0  0  0  0  0  0  0
    1.4747    5.5196    7.5567 H   0  0  0  0  0  0  0  0  0  0  0  0
    0.8149    4.4790    8.5768 H   0  0  0  0  0  0  0  0  0  0  0  0
    2.1477    5.2632    8.9857 H   0  0  0  0  0  0  0  0  0  0  0  0
   -0.8439    6.6356    8.3149 C   0  0  2  0  0  0  0  0  0  0  0  0
   -1.3324    7.4104    8.6595 H   0  0  0  0  0  0  0  0  0  0  0  0
   -1.3957    5.8306    8.4091 H   0  0  0  0  0  0  0  0  0  0  0  0
   -0.6322    6.7770    7.3683 H   0  0  0  0  0  0  0  0  0  0  0  0
    0.0746    6.0606   10.5205 C   0  0  2  0  0  0  0  0  0  0  0  0
    0.8880    5.9645   11.0581 H   0  0  0  0  0  0  0  0  0  0  0  0
   -0.4093    5.2086   10.5021 H   0  0  0  0  0  0  0  0  0  0  0  0
   -0.4975    6.7525   10.9134 H   0  0  0  0  0  0  0  0  0  0  0  0
    2.6830    9.6348    5.3055 C   0  0  1  0  0  0  0  0  0  0  0  0
    3.0185    8.7318    5.0799 H   0  0  0  0  0  0  0  0  0  0  0  0
    1.6928    9.5971    5.2913 H   0  0  0  0  0  0  0  0  0  0  0  0
    3.1332   10.5849    4.2505 C   0  0  2  0  0  0  0  0  0  0  0  0
    4.1233   10.6094    4.2666 H   0  0  0  0  0  0  0  0  0  0  0  0
    2.8622   10.2173    3.3728 H   0  0  0  0  0  0  0  0  0  0  0  0
    1.5047   12.4832    3.7645 C   0  0  0  0  0  0  0  0  0  0  0  0
    0.4870   11.8800    3.0638 C   0  0  0  0  0  0  0  0  0  0  0  0
    0.4802   10.9431    2.9064 H   0  0  0  0  0  0  0  0  0  0  0  0
   -0.5347   12.7056    2.5967 C   0  0  0  0  0  0  0  0  0  0  0  0
   -0.5032   14.0799    2.8655 C   0  0  0  0  0  0  0  0  0  0  0  0
   -1.2243   14.6153    2.5549 H   0  0  0  0  0  0  0  0  0  0  0  0
    0.5275   14.7095    3.5635 C   0  0  0  0  0  0  0  0  0  0  0  0
    1.5060   13.8424    4.0120 C   0  0  0  0  0  0  0  0  0  0  0  0
   -1.7211   12.0949    1.8082 C   0  0  2  0  0  0  0  0  0  0  0  0
   -1.2374   11.5783    0.5698 C   0  0  2  0  0  0  0  0  0  0  0  0
   -0.8600   12.3079    0.0345 H   0  0  0  0  0  0  0  0  0  0  0  0
   -1.9762   11.1617    0.0781 H   0  0  0  0  0  0  0  0  0  0  0  0
   -0.5423   10.9091    0.7444 H   0  0  0  0  0  0  0  0  0  0  0  0
   -2.8640   13.1882    1.5623 C   0  0  2  0  0  0  0  0  0  0  0  0
   -3.0807   13.6293    2.4101 H   0  0  0  0  0  0  0  0  0  0  0  0
   -3.6647   12.7509    1.2085 H   0  0  0  0  0  0  0  0  0  0  0  0
   -2.5454   13.8556    0.9213 H   0  0  0  0  0  0  0  0  0  0  0  0
   -2.3914   10.9921    2.6789 C   0  0  2  0  0  0  0  0  0  0  0  0
   -1.7188   10.3247    2.9363 H   0  0  0  0  0  0  0  0  0  0  0  0
   -3.1029   10.5547    2.1643 H   0  0  0  0  0  0  0  0  0  0  0  0
   -2.7726   11.3974    3.4854 H   0  0  0  0  0  0  0  0  0  0  0  0
    0.5713   16.2157    3.8392 C   0  0  2  0  0  0  0  0  0  0  0  0
   -0.5852   16.9471    3.1775 C   0  0  2  0  0  0  0  0  0  0  0  0
   -0.5279   16.8359    2.2057 H   0  0  0  0  0  0  0  0  0  0  0  0
   -0.5404   17.9010    3.4004 H   0  0  0  0  0  0  0  0  0  0  0  0
   -1.4342   16.5777    3.4992 H   0  0  0  0  0  0  0  0  0  0  0  0
    1.8502   16.8095    3.2694 C   0  0  2  0  0  0  0  0  0  0  0  0
    2.6245   16.4080    3.7151 H   0  0  0  0  0  0  0  0  0  0  0  0
    1.8548   17.7785    3.4142 H   0  0  0  0  0  0  0  0  0  0  0  0
    1.8956   16.6229    2.3067 H   0  0  0  0  0  0  0  0  0  0  0  0
    0.5097   16.4683    5.3533 C   0  0  2  0  0  0  0  0  0  0  0  0
   -0.3029   16.0630    5.7186 H   0  0  0  0  0  0  0  0  0  0  0  0
    0.5011   17.4316    5.5233 H   0  0  0  0  0  0  0  0  0  0  0  0
    1.2949   16.0668    5.7829 H   0  0  0  0  0  0  0  0  0  0  0  0
    3.3648   12.9620    5.1020 C   0  0  2  0  0  0  0  0  0  0  0  0
    4.3385   13.0073    4.8800 H   0  0  0  0  0  0  0  0  0  0  0  0
    1.2068   13.4993    7.7356 C   0  0  0  0  0  0  0  0  0  0  0  0
   -0.1038   13.6180    8.1602 C   0  0  0  0  0  0  0  0  0  0  0  0
   -0.3076   14.7680    8.9651 C   0  0  0  0  0  0  0  0  0  0  0  0
   -1.1843   14.9244    9.2936 H   0  0  0  0  0  0  0  0  0  0  0  0
    0.6808   15.6785    9.3074 C   0  0  0  0  0  0  0  0  0  0  0  0
    1.9887   15.4730    8.8557 C   0  0  0  0  0  0  0  0  0  0  0  0
    2.6904   16.0687    9.0891 H   0  0  0  0  0  0  0  0  0  0  0  0
    2.2215   14.3853    8.0679 C   0  0  0  0  0  0  0  0  0  0  0  0
   -1.1801   12.6284    7.7981 C   0  0  2  0  0  0  0  0  0  0  0  0
   -0.8172   11.2447    8.3194 C   0  0  2  0  0  0  0  0  0  0  0  0
    0.0256   10.9525    7.9151 H   0  0  0  0  0  0  0  0  0  0  0  0
   -1.5285   10.6113    8.0874 H   0  0  0  0  0  0  0  0  0  0  0  0
   -0.7182   11.2786    9.2936 H   0  0  0  0  0  0  0  0  0  0  0  0
   -1.3442   12.5643    6.2723 C   0  0  2  0  0  0  0  0  0  0  0  0
   -1.5695   13.4540    5.9300 H   0  0  0  0  0  0  0  0  0  0  0  0
   -2.0609   11.9346    6.0472 H   0  0  0  0  0  0  0  0  0  0  0  0
   -0.5044   12.2626    5.8657 H   0  0  0  0  0  0  0  0  0  0  0  0
   -2.5363   12.9997    8.3976 C   0  0  2  0  0  0  0  0  0  0  0  0
   -2.4582   13.0525    9.3740 H   0  0  0  0  0  0  0  0  0  0  0  0
   -3.1960   12.3173    8.1586 H   0  0  0  0  0  0  0  0  0  0  0  0
   -2.8217   13.8688    8.0483 H   0  0  0  0  0  0  0  0  0  0  0  0
    0.3378   16.9151   10.1368 C   0  0  2  0  0  0  0  0  0  0  0  0
   -1.1536   16.9377   10.4860 C   0  0  2  0  0  0  0  0  0  0  0  0
   -1.6828   16.9019    9.6635 H   0  0  0  0  0  0  0  0  0  0  0  0
   -1.3611   17.7634   10.9731 H   0  0  0  0  0  0  0  0  0  0  0  0
   -1.3687   16.1648   11.0489 H   0  0  0  0  0  0  0  0  0  0  0  0
    0.6935   18.1630    9.2683 C   0  0  2  0  0  0  0  0  0  0  0  0
    1.6011   18.0669    8.9122 H   0  0  0  0  0  0  0  0  0  0  0  0
    0.6452   18.9717    9.8220 H   0  0  0  0  0  0  0  0  0  0  0  0
    0.0556   18.2384    8.5285 H   0  0  0  0  0  0  0  0  0  0  0  0
    1.1414   16.9302   11.3683 C   0  0  2  0  0  0  0  0  0  0  0  0
    1.0458   16.0724   11.8324 H   0  0  0  0  0  0  0  0  0  0  0  0
    0.8305   17.6541   11.9519 H   0  0  0  0  0  0  0  0  0  0  0  0
    2.0836   17.0753   11.1408 H   0  0  0  0  0  0  0  0  0  0  0  0
  1  2  1  1
  3  6  1  1
  4  1  1  0
  5  1  2  0
  6 55  1  0
  7  3  2  0
  8102  1  0
 54  9  1  6
 10  1  1  0
 11  3  1  0
 12 92  1  0
 13 51  1  0
 14 15  2  0
 15  4  1  0
 16 10  1  0
 17 16  2  0
 18 17  1  0
 19 17  1  0
 20 14  1  0
 21 20  1  0
 22 14  1  1
 22 23  1  0
 23 24  1  6
 25 23  1  0
 26 23  1  0
 27 22  1  0
 27 28  1  1
 29 27  1  0
 30 27  1  0
 31 22  1  0
 31 32  1  6
 33 31  1  0
 34 31  1  0
 35 19  1  1
 35 36  1  0
 36 37  1  6
 38 36  1  0
 39 36  1  0
 40 35  1  0
 40 41  1  1
 42 40  1  0
 43 40  1  0
 44 35  1  0
 44 45  1  1
 46 44  1  0
 47 44  1  0
 48 10  1  0
 48 49  1  1
 50 48  1  0
 51 48  1  0
 51 52  1  6
 53 51  1  0
 54  3  1  0
 55 56  1  0
 56 57  2  0
 57 58  1  0
 59 57  1  0
 60 59  2  0
 61 60  1  0
 62 11  1  0
 63 56  1  6
 63 64  1  0
 64 65  1  6
 66 64  1  0
 67 64  1  0
 68 63  1  0
 68 69  1  6
 70 68  1  0
 71 68  1  0
 72 63  1  0
 72 73  1  1
 74 72  1  0
 75 72  1  0
 76 59  1  1
 76 77  1  0
 77 78  1  6
 79 77  1  0
 80 77  1  0
 81 76  1  0
 81 82  1  1
 83 81  1  0
 84 81  1  0
 85 76  1  0
 85 86  1  1
 87 85  1  0
 88 85  1  0
 89 11  1  0
 89 90  1  6
 91 89  1  0
 92 89  1  0
 92 93  1  6
 94 92  1  0
 95 12  1  0
 96 95  1  0
 97 96  1  0
 98 96  2  0
 99 98  1  0
100 99  1  0
101 99  2  0
102 95  2  0
103 98  1  1
103104  1  0
104105  1  6
106104  1  0
107104  1  0
108103  1  0
108109  1  1
110108  1  0
111108  1  0
112103  1  0
112113  1  1
114112  1  0
115112  1  0
116101  1  1
116117  1  0
117118  1  6
119117  1  0
120117  1  0
121116  1  0
121122  1  1
123121  1  0
124121  1  0
125116  1  0
125126  1  1
127125  1  0
128125  1  0
129  8  1  0
129130  1  1
131  9  1  0
132131  1  0
133132  2  0
134133  1  0
135133  1  0
136135  2  0
137136  1  0
138 13  1  0
139132  1  6
139140  1  0
140141  1  6
142140  1  0
143140  1  0
144139  1  0
144145  1  6
146144  1  0
147144  1  0
148139  1  0
148149  1  1
150148  1  0
151148  1  0
152135  1  6
152153  1  0
153154  1  6
155153  1  0
156153  1  0
157152  1  0
157158  1  6
159157  1  0
160157  1  0
161152  1  0
161162  1  1
163161  1  0
164161  1  0
 12129  1  0
 13 54  1  0
 15 16  1  0
 19 20  2  0
 54129  1  0
 55 62  2  0
 60 62  1  0
101102  1  0
131138  2  0
136138  1  0
M  END
$$$$
BAHXIV
     RDKit          3D

164172  0  0  0  0  0  0  0  0999 V2000
    7.1210   16.8538    8.6712 P   0  0  1  0  0  0  0  0  0  0  0  0
    7.6149   16.8717    9.9484 H   0  0  0  0  0  0  0  0  0  0  0  0
    3.9825   11.2620    7.1688 P   0  0  1  0  0  0  0  0  0  0  0  0
    8.4604   16.9882    7.8250 O   0  0  0  0  0  0  0  0  0  0  0  0
    6.0766   17.8488    8.4991 O   0  0  0  0  0  0  0  0  0  0  0  0
    3.6418   11.1338    8.7240 O   0  0  0  0  0  0  0  0  0  0  0  0
    5.4003   11.3642    6.8260 O   0  0  0  0  0  0  0  0  0  0  0  0
    2.6472   14.2026    4.7467 O   0  0  0  0  0  0  0  0  0  0  0  0
    1.6878   12.4947    6.8894 O   0  0  0  0  0  0  0  0  0  0  0  0
    6.8011   15.3109    8.2174 N   0  0  0  0  0  0  0  0  0  0  0  0
    3.1234    9.9717    6.6884 N   0  0  0  0  0  0  0  0  0  0  0  0
    2.6594   11.9320    4.3268 N   0  0  0  0  0  0  0  0  0  0  0  0
    3.4213   13.9170    7.4893 N   0  0  0  0  0  0  0  0  0  0  0  0
    9.8779   15.6163    6.3252 C   0  0  0  0  0  0  0  0  0  0  0  0
    8.7713   15.8048    7.1201 C   0  0  0  0  0  0  0  0  0  0  0  0
    7.8077   14.8226    7.3345 C   0  0  0  0  0  0  0  0  0  0  0  0
    7.9023   13.5935    6.7410 C   0  0  0  0  0  0  0  0  0  0  0  0
    7.2268   12.9375    6.8651 H   0  0  0  0  0  0  0  0  0  0  0  0
    9.0300   13.3296    5.9415 C   0  0  0  0  0  0  0  0  0  0  0  0
    9.9695   14.3400    5.7692 C   0  0  0  0  0  0  0  0  0  0  0  0
   10.7298   14.1459    5.2361 H   0  0  0  0  0  0  0  0  0  0  0  0
   10.9320   16.7209    6.1161 C   0  0  2  0  0  0  0  0  0  0  0  0
   11.6018   17.0414    7.4648 C   0  0  2  0  0  0  0  0  0  0  0  0
   12.3344   17.6786    7.3246 H   0  0  0  0  0  0  0  0  0  0  0  0
   11.9572   16.2176    7.8576 H   0  0  0  0  0  0  0  0  0  0  0  0
   10.9409   17.4335    8.0736 H   0  0  0  0  0  0  0  0  0  0  0  0
   10.2602   17.9726    5.5440 C   0  0  2  0  0  0  0  0  0  0  0  0
    9.6029   18.3120    6.1873 H   0  0  0  0  0  0  0  0  0  0  0  0
    9.8091   17.7464    4.7031 H   0  0  0  0  0  0  0  0  0  0  0  0
   10.9375   18.6588    5.3763 H   0  0  0  0  0  0  0  0  0  0  0  0
   12.0007   16.2685    5.1327 C   0  0  2  0  0  0  0  0  0  0  0  0
   12.6165   17.0112    4.9558 H   0  0  0  0  0  0  0  0  0  0  0  0
   11.5766   15.9914    4.2941 H   0  0  0  0  0  0  0  0  0  0  0  0
   12.4976   15.5145    5.5141 H   0  0  0  0  0  0  0  0  0  0  0  0
    9.1726   11.9591    5.3051 C   0  0  2  0  0  0  0  0  0  0  0  0
   10.4871   11.8046    4.5469 C   0  0  2  0  0  0  0  0  0  0  0  0
   10.5149   12.4493    3.8070 H   0  0  0  0  0  0  0  0  0  0  0  0
   10.5536   10.8959    4.1884 H   0  0  0  0  0  0  0  0  0  0  0  0
   11.2360   11.9742    5.1534 H   0  0  0  0  0  0  0  0  0  0  0  0
    7.9962   11.6915    4.3699 C   0  0  2  0  0  0  0  0  0  0  0  0
    7.1568   11.7650    4.8731 H   0  0  0  0  0  0  0  0  0  0  0  0
    8.0733   10.7885    3.9977 H   0  0  0  0  0  0  0  0  0  0  0  0
    8.0006   12.3475    3.6439 H   0  0  0  0  0  0  0  0  0  0  0  0
    9.1600   10.8752    6.4194 C   0  0  2  0  0  0  0  0  0  0  0  0
    9.9240   11.0128    7.0167 H   0  0  0  0  0  0  0  0  0  0  0  0
    9.2192    9.9873    6.0127 H   0  0  0  0  0  0  0  0  0  0  0  0
    8.3263   10.9449    6.9317 H   0  0  0  0  0  0  0  0  0  0  0  0
    5.5600   14.5794    8.4499 C   0  0  2  0  0  0  0  0  0  0  0  0
    5.1369   14.9112    9.2821 H   0  0  0  0  0  0  0  0  0  0  0  0
    5.7657   13.6199    8.5745 H   0  0  0  0  0  0  0  0  0  0  0  0
    4.5917   14.7359    7.3037 C   0  0  2  0  0  0  0  0  0  0  0  0
    4.3197   15.6841    7.2304 H   0  0  0  0  0  0  0  0  0  0  0  0
    5.0397   14.4795    6.4584 H   0  0  0  0  0  0  0  0  0  0  0  0
    3.1106   12.7509    6.6491 C   0  0  1  0  0  0  0  0  0  0  0  0
    2.8149   10.0231    8.9674 C   0  0  0  0  0  0  0  0  0  0  0  0
    2.3535    9.6461   10.2060 C   0  0  0  0  0  0  0  0  0  0  0  0
    1.5837    8.4887   10.1897 C   0  0  0  0  0  0  0  0  0  0  0  0
    1.2501    8.1720   11.0214 H   0  0  0  0  0  0  0  0  0  0  0  0
    1.2620    7.7497    9.0434 C   0  0  0  0  0  0  0  0  0  0  0  0
    1.7384    8.2342    7.8163 C   0  0  0  0  0  0  0  0  0  0  0  0
    1.5193    7.7817    7.0098 H   0  0  0  0  0  0  0  0  0  0  0  0
    2.5059    9.3369    7.7816 C   0  0  0  0  0  0  0  0  0  0  0  0
    2.6720   10.4492   11.4740 C   0  0  2  0  0  0  0  0  0  0  0  0
    2.0354    9.7800   12.7078 C   0  0  2  0  0  0  0  0  0  0  0  0
    1.0630    9.7347   12.5883 H   0  0  0  0  0  0  0  0  0  0  0  0
    2.2423   10.3078   13.5073 H   0  0  0  0  0  0  0  0  0  0  0  0
    2.3944    8.8751   12.8112 H   0  0  0  0  0  0  0  0  0  0  0  0
    2.1333   11.8536   11.3407 C   0  0  2  0  0  0  0  0  0  0  0  0
    2.5529   12.2947   10.5733 H   0  0  0  0  0  0  0  0  0  0  0  0
    2.3324   12.3588   12.1587 H   0  0  0  0  0  0  0  0  0  0  0  0
    1.1620   11.8196   11.2075 H   0  0  0  0  0  0  0  0  0  0  0  0
    4.1854   10.5114   11.6785 C   0  0  2  0  0  0  0  0  0  0  0  0
    4.5351    9.6065   11.8186 H   0  0  0  0  0  0  0  0  0  0  0  0
    4.3870   11.0618   12.4642 H   0  0  0  0  0  0  0  0  0  0  0  0
    4.6067   10.9072   10.8881 H   0  0  0  0  0  0  0  0  0  0  0  0
    0.4495    6.4584    9.1029 C   0  0  2  0  0  0  0  0  0  0  0  0
    1.2982    5.3292    8.5010 C   0  0  2  0  0  0  0  0  0  0  0  0
    1.4747    5.5196    7.5567 H   0  0  0  0  0  0  0  0  0  0  0  0
    0.8149    4.4790    8.5768 H   0  0  0  0  0  0  0  0  0  0  0  0
    2.1477    5.2632    8.9857 H   0  0  0  0  0  0  0  0  0  0  0  0
   -0.8439    6.6356    8.3149 C   0  0  2  0  0  0  0  0  0  0  0  0
   -1.3324    7.4104    8.6595 H   0  0  0  0  0  0  0  0  0  0  0  0
   -1.3957    5.8306    8.4091 H   0  0  0  0  0  0  0  0  0  0  0  0
   -0.6322    6.7770    7.3683 H   0  0  0  0  0  0  0  0  0  0  0  0
    0.0746    6.0606   10.5205 C   0  0  2  0  0  0  0  0  0  0  0  0
    0.8880    5.9645   11.0581 H   0  0  0  0  0  0  0  0  0  0  0  0
   -0.4093    5.2086   10.5021 H   0  0  0  0  0  0  0  0  0  0  0  0
   -0.4975    6.7525   10.9134 H   0  0  0  0  0  0  0  0  0  0  0  0
    2.6830    9.6348    5.3055 C   0  0  1  0  0  0  0  0  0  0  0  0
    3.0185    8.7318    5.0799 H   0  0  0  0  0  0  0  0  0  0  0  0
    1.6928    9.5971    5.2913 H   0  0  0  0  0  0  0  0  0  0  0  0
    3.1332   10.5849    4.2505 C   0  0  2  0  0  0  0  0  0  0  0  0
    4.1233   10.6094    4.2666 H   0  0  0  0  0  0  0  0  0  0  0  0
    2.8622   10.2173    3.3728 H   0  0  0  0  0  0  0  0  0  0  0  0
    1.5047   12.4832    3.7645 C   0  0  0  0  0  0  0  0  0  0  0  0
    0.4870   11.8800    3.0638 C   0  0  0  0  0  0  0  0  0  0  0  0
    0.4802   10.9431    2.9064 H   0  0  0  0  0  0  0  0  0  0  0  0
   -0.5347   12.7056    2.5967 C   0  0  0  0  0  0  0  0  0  0  0  0
   -0.5032   14.0799    2.8655 C   0  0  0  0  0  0  0  0  0  0  0  0
   -1.2243   14.6153    2.5549 H   0  0  0  0  0  0  0  0  0  0  0  0
    0.5275   14.7095    3.5635 C   0  0  0  0  0  0  0  0  0  0  0  0
    1.5060   13.8424    4.0120 C   0  0  0  0  0  0  0  0  0  0  0  0
   -1.7211   12.0949    1.8082 C   0  0  2  0  0  0  0  0  0  0  0  0
   -1.2374   11.5783    0.5698 C   0  0  2  0  0  0  0  0  0  0  0  0
   -0.8600   12.3079    0.0345 H   0  0  0  0  0  0  0  0  0  0  0  0
   -1.9762   11.1617    0.0781 H   0  0  0  0  0  0  0  0  0  0  0  0
   -0.5423   10.9091    0.7444 H   0  0  0  0  0  0  0  0  0  0  0  0
   -2.8640   13.1882    1.5623 C   0  0  2  0  0  0  0  0  0  0  0  0
   -3.0807   13.6293    2.4101 H   0  0  0  0  0  0  0  0  0  0  0  0
   -3.6647   12.7509    1.2085 H   0  0  0  0  0  0  0  0  0  0  0  0
   -2.5454   13.8556    0.9213 H   0  0  0  0  0  0  0  0  0  0  0  0
   -2.3914   10.9921    2.6789 C   0  0  2  0  0  0  0  0  0  0  0  0
   -1.7188   10.3247    2.9363 H   0  0  0  0  0  0  0  0  0  0  0  0
   -3.1029   10.5547    2.1643 H   0  0  0  0  0  0  0  0  0  0  0  0
   -2.7726   11.3974    3.4854 H   0  0  0  0  0  0  0  0  0  0  0  0
    0.5713   16.2157    3.8392 C   0  0  2  0  0  0  0  0  0  0  0  0
   -0.5852   16.9471    3.1775 C   0  0  2  0  0  0  0  0  0  0  0  0
   -0.5279   16.8359    2.2057 H   0  0  0  0  0  0  0  0  0  0  0  0
   -0.5404   17.9010    3.4004 H   0  0  0  0  0  0  0  0  0  0  0  0
   -1.4342   16.5777    3.4992 H   0  0  0  0  0  0  0  0  0  0  0  0
    1.8502   16.8095    3.2694 C   0  0  2  0  0  0  0  0  0  0  0  0
    2.6245   16.4080    3.7151 H   0  0  0  0  0  0  0  0  0  0  0  0
    1.8548   17.7785    3.4142 H   0  0  0  0  0  0  0  0  0  0  0  0
    1.8956   16.6229    2.3067 H   0  0  0  0  0  0  0  0  0  0  0  0
    0.5097   16.4683    5.3533 C   0  0  2  0  0  0  0  0  0  0  0  0
   -0.3029   16.0630    5.7186 H   0  0  0  0  0  0  0  0  0  0  0  0
    0.5011   17.4316    5.5233 H   0  0  0  0  0  0  0  0  0  0  0  0
    1.2949   16.0668    5.7829 H   0  0  0  0  0  0  0  0  0  0  0  0
    3.3648   12.9620    5.1020 C   0  0  2  0  0  0  0  0  0  0  0  0
    4.3385   13.0073    4.8800 H   0  0  0  0  0  0  0  0  0  0  0  0
    1.2068   13.4993    7.7356 C   0  0  0  0  0  0  0  0  0  0  0  0
   -0.1038   13.6180    8.1602 C   0  0  0  0  0  0  0  0  0  0  0  0
   -0.3076   14.7680    8.9651 C   0  0  0  0  0  0  0  0  0  0  0  0
   -1.1843   14.9244    9.2936 H   0  0  0  0  0  0  0  0  0  0  0  0
    0.6808   15.6785    9.3074 C   0  0  0  0  0  0  0  0  0  0  0  0
    1.9887   15.4730    8.8557 C   0  0  0  0  0  0  0  0  0  0  0  0
    2.6904   16.0687    9.0891 H   0  0  0  0  0  0  0  0  0  0  0  0
    2.2215   14.3853    8.0679 C   0  0  0  0  0  0  0  0  0  0  0  0
   -1.1801   12.6284    7.7981 C   0  0  2  0  0  0  0  0  0  0  0  0
   -0.8172   11.2447    8.3194 C   0  0  2  0  0  0  0  0  0  0  0  0
    0.0256   10.9525    7.9151 H   0  0  0  0  0  0  0  0  0  0  0  0
   -1.5285   10.6113    8.0874 H   0  0  0  0  0  0  0  0  0  0  0  0
   -0.7182   11.2786    9.2936 H   0  0  0  0  0  0  0  0  0  0  0  0
   -1.3442   12.5643    6.2723 C   0  0  2  0  0  0  0  0  0  0  0  0
   -1.5695   13.4540    5.9300 H   0  0  0  0  0  0  0  0  0  0  0  0
   -2.0609   11.9346    6.0472 H   0  0  0  0  0  0  0  0  0  0  0  0
   -0.5044   12.2626    5.8657 H   0  0  0  0  0  0  0  0  0  0  0  0
   -2.5363   12.9997    8.3976 C   0  0  2  0  0  0  0  0  0  0  0  0
   -2.4582   13.0525    9.3740 H   0  0  0  0  0  0  0  0  0  0  0  0
   -3.1960   12.3173    8.1586 H   0  0  0  0  0  0  0  0  0  0  0  0
   -2.8217   13.8688    8.0483 H   0  0  0  0  0  0  0  0  0  0  0  0
    0.3378   16.9151   10.1368 C   0  0  2  0  0  0  0  0  0  0  0  0
   -1.1536   16.9377   10.4860 C   0  0  2  0  0  0  0  0  0  0  0  0
   -1.6828   16.9019    9.6635 H   0  0  0  0  0  0  0  0  0  0  0  0
   -1.3611   17.7634   10.9731 H   0  0  0  0  0  0  0  0  0  0  0  0
   -1.3687   16.1648   11.0489 H   0  0  0  0  0  0  0  0  0  0  0  0
    0.6935   18.1630    9.2683 C   0  0  2  0  0  0  0  0  0  0  0  0
    1.6011   18.0669    8.9122 H   0  0  0  0  0  0  0  0  0  0  0  0
    0.6452   18.9717    9.8220 H   0  0  0  0  0  0  0  0  0  0  0  0
    0.0556   18.2384    8.5285 H   0  0  0  0  0  0  0  0  0  0  0  0
    1.1414   16.9302   11.3683 C   0  0  2  0  0  0  0  0  0  0  0  0
    1.0458   16.0724   11.8324 H   0  0  0  0  0  0  0  0  0  0  0  0
    0.8305   17.6541   11.9519 H   0  0  0  0  0  0  0  0  0  0  0  0
    2.0836   17.0753   11.1408 H   0  0  0  0  0  0  0  0  0  0  0  0
  1  2  1  1
  3  6  1  1
  4  1  1  0
  5  1  2  0
  6 55  1  0
  7  3  2  0
  8102  1  0
 54  9  1  6
 10  1  1  0
 11  3  1  0
 12 92  1  0
 13 51  1  0
 14 15  2  0
 15  4  1  0
 16 10  1  0
 17 16  2  0
 18 17  1  0
 19 17  1  0
 20 14  1  0
 21 20  1  0
 22 14  1  1
 22 23  1  0
 23 24  1  6
 25 23  1  0
 26 23  1  0
 27 22  1  0
 27 28  1  1
 29 27  1  0
 30 27  1  0
 31 22  1  0
 31 32  1  6
 33 31  1  0
 34 31  1  0
 35 19  1  1
 35 36  1  0
 36 37  1  6
 38 36  1  0
 39 36  1  0
 40 35  1  0
 40 41  1  1
 42 40  1  0
 43 40  1  0
 44 35  1  0
 44 45  1  1
 46 44  1  0
 47 44  1  0
 48 10  1  0
 48 49  1  1
 50 48  1  0
 51 48  1  0
 51 52  1  6
 53 51  1  0
 54  3  1  0
 55 56  1  0
 56 57  2  0
 57 58  1  0
 59 57  1  0
 60 59  2  0
 61 60  1  0
 62 11  1  0
 63 56  1  6
 63 64  1  0
 64 65  1  6
 66 64  1  0
 67 64  1  0
 68 63  1  0
 68 69  1  6
 70 68  1  0
 71 68  1  0
 72 63  1  0
 72 73  1  1
 74 72  1  0
 75 72  1  0
 76 59  1  1
 76 77  1  0
 77 78  1  6
 79 77  1  0
 80 77  1  0
 81 76  1  0
 81 82  1  1
 83 81  1  0
 84 81  1  0
 85 76  1  0
 85 86  1  1
 87 85  1  0
 88 85  1  0
 89 11  1  0
 89 90  1  6
 91 89  1  0
 92 89  1  0
 92 93  1  6
 94 92  1  0
 95 12  1  0
 96 95  1  0
 97 96  1  0
 98 96  2  0
 99 98  1  0
100 99  1  0
101 99  2  0
102 95  2  0
103 98  1  1
103104  1  0
104105  1  6
106104  1  0
107104  1  0
108103  1  0
108109  1  1
110108  1  0
111108  1  0
112103  1  0
112113  1  1
114112  1  0
115112  1  0
116101  1  1
116117  1  0
117118  1  6
119117  1  0
120117  1  0
121116  1  0
121122  1  1
123121  1  0
124121  1  0
125116  1  0
125126  1  1
127125  1  0
128125  1  0
129  8  1  0
129130  1  1
131  9  1  0
132131  1  0
133132  2  0
134133  1  0
135133  1  0
136135  2  0
137136  1  0
138 13  1  0
139132  1  6
139140  1  0
140141  1  6
142140  1  0
143140  1  0
144139  1  0
144145  1  6
146144  1  0
147144  1  0
148139  1  0
148149  1  1
150148  1  0
151148  1  0
152135  1  6
152153  1  0
153154  1  6
155153  1  0
156153  1  0
157152  1  0
157158  1  6
159157  1  0
160157  1  0
161152  1  0
161162  1  1
163161  1  0
164161  1  0
 12129  1  0
 13 54  1  0
 15 16  1  0
 19 20  2  0
 54129  1  0
 55 62  2  0
 60 62  1  0
101102  1  0
131138  2  0
136138  1  0
M  ISO  1  94   2
M  END
$$$$
